@<TRIPOS>MOLECULE
3R137
137   139    1
SMALL
USER_CHARGES


@<TRIPOS>ATOM
      1 CA         25.9809   -3.9114   -7.3759 C.3       0 UNK        -0.2020 
      2 C          25.8823   -3.6504   -5.8808 C.2       0 UNK         0.4855 
      3 O          25.7727   -2.4910   -5.4804 O.2       0 UNK        -0.5197 
      4 N          25.9499   -4.7214   -5.0749 N.am      1 UNK        -0.4892 
      5 CA         25.8544   -4.7762   -3.6065 C.3       1 UNK         0.0835 
      6 C6         26.8973   -3.8951   -2.8678 C.3       12 UNK        -0.0855 
      7 S7         28.6028   -4.5259   -3.0401 S.3       12 UNK        -0.2931 
      8 C8         29.3237   -3.4031   -4.2849 C.3       12 UNK         0.0378 
      9 C9         29.9438   -2.1253   -3.7200 C.ar      12 UNK        -0.0802 
     10 C10        31.1333   -1.6441   -4.2763 C.ar      12 UNK        -0.0944 
     11 C11        31.6814   -0.4306   -3.8527 C.ar      12 UNK        -0.0787 
     12 C12        31.0267    0.3153   -2.8691 C.ar      12 UNK        -0.0862 
     13 C13        29.8423   -0.1530   -2.2936 C.ar      12 UNK        -0.0733 
     14 C14        29.3249   -1.3852   -2.7053 C.ar      12 UNK        -0.0832 
     15 C15        29.1358    0.6796   -1.2260 C.3       12 UNK         0.0240 
     16 S16        27.3241    0.7882   -1.4452 S.3       12 UNK        -0.2522 
     17 C17        27.1675    1.4930   -3.1248 C.3       12 UNK        -0.0967 
     18 CA         26.5481    0.4737   -4.1210 C.3       5 UNK         0.0660 
     19 N          25.2162   -0.0055   -3.7244 N.am      5 UNK        -0.4015 
     20 C          24.0884    0.7195   -3.6604 C.2       4 UNK         0.4946 
     21 O          24.0191    1.9268   -3.8950 O.2       4 UNK        -0.5353 
     22 CA         22.8132   -0.0396   -3.2668 C.3       4 UNK         0.0277 
     23 CB         22.2192   -0.7642   -4.4868 C.3       4 UNK        -0.1981 
     24 N          23.0660   -0.9963   -2.1861 N.am      4 UNK        -0.4209 
     25 C          23.1775   -0.6501   -0.8929 C.2       3 UNK         0.4942 
     26 O          23.0207    0.5052   -0.4935 O.2       3 UNK        -0.5208 
     27 CA         23.5459   -1.7433    0.1361 C.3       3 UNK         0.0250 
     28 CB         22.7555   -1.5966    1.4544 C.3       3 UNK        -0.1990 
     29 N          23.4720   -3.1187   -0.3729 N.am      3 UNK        -0.4232 
     30 C          22.3888   -3.7876   -0.7990 C.2       2 UNK         0.4993 
     31 O          21.2391   -3.3498   -0.7340 O.2       2 UNK        -0.5286 
     32 CA         22.6547   -5.1653   -1.4468 C.3       2 UNK         0.0209 
     33 CB         21.5269   -5.5857   -2.4143 C.3       2 UNK        -0.1931 
     34 N          23.9647   -5.2661   -2.1185 N.am      2 UNK        -0.4546 
     35 C          24.4291   -4.4718   -3.0978 C.2       1 UNK         0.5154 
     36 O          23.8042   -3.5020   -3.5284 O.2       1 UNK        -0.5181 
     37 C          26.5384    0.9637   -5.5851 C.2       5 UNK         0.5014 
     38 O          27.0552    2.0377   -5.8985 O.2       5 UNK        -0.5248 
     39 N          25.9297    0.1490   -6.4571 N.am      6 UNK        -0.4434 
     40 CA         25.7145    0.4223   -7.8795 C.3       6 UNK         0.0363 
     41 CB         24.4588   -0.3382   -8.3390 C.3       6 UNK        -0.1936 
     42 C          26.9291    0.0749   -8.7605 C.2       6 UNK         0.5081 
     43 O          26.8572    0.2565   -9.9760 O.2       6 UNK        -0.5248 
     44 N          28.0143   -0.4210   -8.1475 N.am      7 UNK        -0.4718 
     45 CA         29.2849   -0.7649   -8.7926 C.3       7 UNK         0.0273 
     46 CB         30.2147   -1.3943   -7.7435 C.3       7 UNK        -0.1935 
     47 C          29.9661    0.4287   -9.4884 C.2       7 UNK         0.5018 
     48 O          30.5390    0.2473  -10.5644 O.2       7 UNK        -0.5186 
     49 N          29.8582    1.6214   -8.8796 N.am      8 UNK        -0.4240 
     50 CA         30.2974    2.9262   -9.3896 C.3       8 UNK         0.0235 
     51 CB         29.3040    3.4269  -10.4626 C.3       8 UNK        -0.2000 
     52 C          31.7658    2.9147   -9.8574 C.2       8 UNK         0.4941 
     53 O          32.6631    2.8419   -9.0188 O.2       8 UNK        -0.5273 
     54 N          31.9904    2.9488  -11.1786 N.am      9 UNK        -0.4262 
     55 CA         33.3085    2.8891  -11.8170 C.3       9 UNK         0.0264 
     56 CB         33.1449    3.0657  -13.3351 C.3       9 UNK        -0.1955 
     57 C          34.1048    1.6072  -11.5082 C.2       9 UNK         0.5031 
     58 O          35.3363    1.6568  -11.5130 O.2       9 UNK        -0.5390 
     59 N          33.4130    0.4963  -11.2074 N.am      10 UNK        -0.4204 
     60 CA         34.0333   -0.7730  -10.8139 C.3       10 UNK         0.0237 
     61 CB         33.0077   -1.9132  -10.9187 C.3       10 UNK        -0.1985 
     62 C          34.6919   -0.7385   -9.4205 C.2       10 UNK         0.4970 
     63 O          35.4722   -1.6424   -9.1182 O.2       10 UNK        -0.4914 
     64 N          34.4084    0.2940   -8.6114 N.am      11 UNK        -0.4285 
     65 CA         35.1288    0.5786   -7.3602 C.3       11 UNK         0.1007 
     66 C          36.5809    1.1031   -7.5736 C.2       11 UNK         0.5703 
     67 N          36.9829    1.5057   -8.7755 N.am      11 UNK        -0.7361 
     68 O          37.3631    1.1369   -6.6265 O.2       11 UNK        -0.4986 
     69 C69        34.3395    1.5361   -6.4291 C.3       12 UNK        -0.0947 
     70 S70        32.6625    0.9437   -6.0299 S.3       12 UNK        -0.2240 
     71 C71        32.9762    0.0783   -4.4645 C.3       12 UNK         0.0194 
     72 H72        26.3488   -4.9145   -7.5904 H         1 UNK         0.0906 
     73 H73        25.0015   -3.8010   -7.8399 H         1 UNK         0.0906 
     74 H74        26.6626   -3.1982   -7.8388 H         1 UNK         0.0906 
     75 H75        26.0314   -5.6297   -5.5105 H         1 UNK         0.3140 
     76 H76        26.0617   -5.8165   -3.3491 H         1 UNK         0.1085 
     77 H77        26.6895   -3.8692   -1.7962 H         1 UNK         0.0836 
     78 H78        26.8305   -2.8619   -3.2048 H         1 UNK         0.0836 
     79 H79        28.5690   -3.1301   -5.0213 H         1 UNK         0.0731 
     80 H80        30.0811   -3.9699   -4.8286 H         1 UNK         0.0731 
     81 H81        31.6282   -2.2027   -5.0593 H         1 UNK         0.1312 
     82 H82        31.4421    1.2626   -2.5528 H         1 UNK         0.1406 
     83 H83        28.4192   -1.7428   -2.2432 H         1 UNK         0.1631 
     84 H84        29.5379    1.6937   -1.2015 H         1 UNK         0.0717 
     85 H85        29.3438    0.2422   -0.2488 H         1 UNK         0.0717 
     86 H86        26.5584    2.3966   -3.0678 H         1 UNK         0.0934 
     87 H87        28.1510    1.8172   -3.4701 H         1 UNK         0.0934 
     88 H88        27.1881   -0.4083   -4.1274 H         1 UNK         0.0739 
     89 H89        25.1398   -1.0040   -3.5854 H         1 UNK         0.3093 
     90 H90        22.0777    0.6905   -2.9213 H         1 UNK         0.0818 
     91 H91        22.9270   -1.4647   -4.9320 H         1 UNK         0.0819 
     92 H92        21.3206   -1.3207   -4.2200 H         1 UNK         0.0819 
     93 H93        21.9418   -0.0504   -5.2634 H         1 UNK         0.0819 
     94 H94        23.2113   -1.9633   -2.4633 H         1 UNK         0.3041 
     95 H95        24.5982   -1.5742    0.3700 H         1 UNK         0.0784 
     96 H96        22.9455   -0.6288    1.9203 H         1 UNK         0.0793 
     97 H97        21.6798   -1.6710    1.2933 H         1 UNK         0.0793 
     98 H98        23.0411   -2.3616    2.1764 H         1 UNK         0.0793 
     99 H99        24.3617   -3.5867   -0.4708 H         1 UNK         0.3024 
    100 H100       22.6682   -5.8822   -0.6239 H         1 UNK         0.1171 
    101 H101       21.7196   -6.5677   -2.8461 H         1 UNK         0.0786 
    102 H102       20.5673   -5.6443   -1.8990 H         1 UNK         0.0786 
    103 H103       21.4129   -4.8753   -3.2341 H         1 UNK         0.0786 
    104 H104       24.5551   -6.0212   -1.7951 H         1 UNK         0.2977 
    105 H105       25.6240   -0.7624   -6.1165 H         1 UNK         0.3127 
    106 H106       25.5265    1.4908   -8.0046 H         1 UNK         0.0770 
    107 H107       24.5865   -1.4168   -8.2528 H         1 UNK         0.0814 
    108 H108       24.2258   -0.1194   -9.3820 H         1 UNK         0.0814 
    109 H109       23.5868   -0.0561   -7.7486 H         1 UNK         0.0814 
    110 H110       27.9652   -0.5435   -7.1473 H         1 UNK         0.2983 
    111 H111       29.0767   -1.5107   -9.5628 H         1 UNK         0.0947 
    112 H112       31.2024   -1.6038   -8.1533 H         1 UNK         0.0806 
    113 H113       29.8124   -2.3366   -7.3715 H         1 UNK         0.0806 
    114 H114       30.3551   -0.7309   -6.8904 H         1 UNK         0.0806 
    115 H115       29.3925    1.6402   -7.9832 H         1 UNK         0.3000 
    116 H116       30.2542    3.6202   -8.5488 H         1 UNK         0.0850 
    117 H117       29.5972    4.4032  -10.8515 H         1 UNK         0.0810 
    118 H118       28.3050    3.5406  -10.0412 H         1 UNK         0.0810 
    119 H119       29.2219    2.7388  -11.3050 H         1 UNK         0.0810 
    120 H120       31.1895    2.9744  -11.7931 H         1 UNK         0.3040 
    121 H121       33.8924    3.7295  -11.4358 H         1 UNK         0.0766 
    122 H122       34.1141    3.0527  -13.8360 H         1 UNK         0.0812 
    123 H123       32.6714    4.0176  -13.5765 H         1 UNK         0.0812 
    124 H124       32.5421    2.2684  -13.7717 H         1 UNK         0.0812 
    125 H125       32.3967    0.5372  -11.1719 H         1 UNK         0.3205 
    126 H126       34.8304   -0.9839  -11.5301 H         1 UNK         0.0754 
    127 H127       32.1897   -1.7899  -10.2119 H         1 UNK         0.0769 
    128 H128       33.4732   -2.8774  -10.7100 H         1 UNK         0.0769 
    129 H129       32.5791   -1.9710  -11.9193 H         1 UNK         0.0769 
    130 H130       33.7571    1.0098   -8.9122 H         1 UNK         0.2981 
    131 H131       35.2326   -0.3683   -6.8270 H         1 UNK         0.0541 
    132 H132       36.3572    1.4878   -9.5706 H         1 UNK         0.3459 
    133 H133       37.9276    1.8368   -8.8900 H         1 UNK         0.3459 
    134 H134       34.2440    2.5187   -6.8935 H         1 UNK         0.0612 
    135 H135       34.8823    1.7012   -5.4966 H         1 UNK         0.0612 
    136 H136       33.4807    0.7517   -3.7699 H         1 UNK         0.0624 
    137 H137       33.6584   -0.7544   -4.6423 H         1 UNK         0.0624 
@<TRIPOS>BOND
     1    1    2 1    
     2    1   72 1    
     3    1   73 1    
     4    1   74 1    
     5    2    3 2    
     6    2    4 am   BACKBONE|DICT|INTERRES
     7    4    5 1    
     8    4   75 1    
     9    5    6 1    
    10    5   35 1    
    11    5   76 1    
    12    6    7 1    
    13    6   77 1    
    14    6   78 1    
    15    7    8 1    
    16    8    9 1    
    17    8   79 1    
    18    8   80 1    
    19    9   10 ar   
    20    9   14 ar   
    21   10   11 ar   
    22   10   81 1    
    23   11   12 ar   
    24   11   71 1    
    25   12   13 ar   
    26   12   82 1    
    27   13   14 ar   
    28   13   15 1    
    29   14   83 1    
    30   15   16 1    
    31   15   84 1    
    32   15   85 1    
    33   16   17 1    
    34   17   18 1    
    35   17   86 1    
    36   17   87 1    
    37   18   19 1    
    38   18   37 1    
    39   18   88 1    
    40   19   20 am   BACKBONE|DICT|INTERRES
    41   19   89 1    
    42   20   21 2    
    43   20   22 1    
    44   22   23 1    
    45   22   24 1    
    46   22   90 1    
    47   23   91 1    
    48   23   92 1    
    49   23   93 1    
    50   24   25 am   BACKBONE|DICT|INTERRES
    51   24   94 1    
    52   25   26 2    
    53   25   27 1    
    54   27   28 1    
    55   27   29 1    
    56   27   95 1    
    57   28   96 1    
    58   28   97 1    
    59   28   98 1    
    60   29   30 am   BACKBONE|DICT|INTERRES
    61   29   99 1    
    62   30   31 2    
    63   30   32 1    
    64   32   33 1    
    65   32   34 1    
    66   32  100 1    
    67   33  101 1    
    68   33  102 1    
    69   33  103 1    
    70   34   35 am   BACKBONE|DICT|INTERRES
    71   34  104 1    
    72   35   36 2    
    73   37   38 2    
    74   37   39 am   BACKBONE|DICT|INTERRES
    75   39   40 1    
    76   39  105 1    
    77   40   41 1    
    78   40   42 1    
    79   40  106 1    
    80   41  107 1    
    81   41  108 1    
    82   41  109 1    
    83   42   43 2    
    84   42   44 am   BACKBONE|DICT|INTERRES
    85   44   45 1    
    86   44  110 1    
    87   45   46 1    
    88   45   47 1    
    89   45  111 1    
    90   46  112 1    
    91   46  113 1    
    92   46  114 1    
    93   47   48 2    
    94   47   49 am   BACKBONE|DICT|INTERRES
    95   49   50 1    
    96   49  115 1    
    97   50   51 1    
    98   50   52 1    
    99   50  116 1    
   100   51  117 1    
   101   51  118 1    
   102   51  119 1    
   103   52   53 2    
   104   52   54 am   BACKBONE|DICT|INTERRES
   105   54   55 1    
   106   54  120 1    
   107   55   56 1    
   108   55   57 1    
   109   55  121 1    
   110   56  122 1    
   111   56  123 1    
   112   56  124 1    
   113   57   58 2    
   114   57   59 am   BACKBONE|DICT|INTERRES
   115   59   60 1    
   116   59  125 1    
   117   60   61 1    
   118   60   62 1    
   119   60  126 1    
   120   61  127 1    
   121   61  128 1    
   122   61  129 1    
   123   62   63 2    
   124   62   64 am   BACKBONE|DICT|INTERRES
   125   64   65 1    
   126   64  130 1    
   127   65   66 1    
   128   65   69 1    
   129   65  131 1    
   130   66   67 am   BACKBONE|DICT|INTERRES
   131   66   68 2    
   132   67  132 1    
   133   67  133 1    
   134   69   70 1    
   135   69  134 1    
   136   69  135 1    
   137   70   71 1    
   138   71  136 1    
   139   71  137 1    
@<TRIPOS>SUBSTRUCTURE
     1 UNK         1 GROUP             0       ****    0 ROOT    
