@<TRIPOS>MOLECULE
3R137
137   139    1
SMALL
USER_CHARGES


@<TRIPOS>ATOM
      1 CA         26.2313   -6.3791   -5.5329 C.3       0 UNK        -0.2020 
      2 C          26.3393   -5.6801   -4.1867 C.2       0 UNK         0.4855 
      3 O          25.3153   -5.3620   -3.5808 O.2       0 UNK        -0.5197 
      4 N          27.5702   -5.4253   -3.7198 N.am      1 UNK        -0.4892 
      5 CA         27.8771   -4.7223   -2.4679 C.3       1 UNK         0.0835 
      6 C6         29.4022   -4.6974   -2.2001 C.3       12 UNK        -0.0855 
      7 S7         29.7875   -4.2840   -0.4663 S.3       12 UNK        -0.2931 
      8 C8         31.4807   -3.6238   -0.6147 C.3       12 UNK         0.0378 
      9 C9         31.5435   -2.2688   -1.3127 C.ar      12 UNK        -0.0802 
     10 C10        32.3720   -2.0893   -2.4260 C.ar      12 UNK        -0.0944 
     11 C11        32.4816   -0.8351   -3.0350 C.ar      12 UNK        -0.0787 
     12 C12        31.7554    0.2427   -2.5237 C.ar      12 UNK        -0.0862 
     13 C13        30.9004    0.0734   -1.4311 C.ar      12 UNK        -0.0733 
     14 C14        30.8089   -1.1830   -0.8229 C.ar      12 UNK        -0.0832 
     15 C15        30.0794    1.2432   -0.8979 C.3       12 UNK         0.0240 
     16 S16        29.2063    2.1756   -2.2039 S.3       12 UNK        -0.2522 
     17 C17        28.1304    0.8979   -2.9375 C.3       12 UNK        -0.0967 
     18 CA         28.1052    0.9544   -4.4876 C.3       5 UNK         0.0660 
     19 N          27.7413   -0.3452   -5.0669 N.am      5 UNK        -0.4015 
     20 C          27.6501   -0.6384   -6.3734 C.2       4 UNK         0.4946 
     21 O          27.9404    0.1442   -7.2741 O.2       4 UNK        -0.5353 
     22 CA         27.0642   -2.0108   -6.7442 C.3       4 UNK         0.0277 
     23 CB         28.1267   -3.1186   -6.7060 C.3       4 UNK        -0.1981 
     24 N          25.9500   -2.3621   -5.8650 N.am      4 UNK        -0.4209 
     25 C          24.7056   -1.8822   -6.0009 C.2       3 UNK         0.4942 
     26 O          24.3447   -1.1710   -6.9380 O.2       3 UNK        -0.5208 
     27 CA         23.6965   -2.2335   -4.8940 C.3       3 UNK         0.0250 
     28 CB         22.9044   -3.4975   -5.2634 C.3       3 UNK        -0.1990 
     29 N          24.3289   -2.4094   -3.5827 N.am      3 UNK        -0.4232 
     30 C          24.8473   -1.4008   -2.8650 C.2       2 UNK         0.4993 
     31 O          24.8219   -0.2250   -3.2283 O.2       2 UNK        -0.5286 
     32 CA         25.5672   -1.7631   -1.5525 C.3       2 UNK         0.0209 
     33 CB         24.5689   -1.8034   -0.3851 C.3       2 UNK        -0.1931 
     34 N          26.3067   -3.0288   -1.6101 N.am      2 UNK        -0.4546 
     35 C          27.2804   -3.3018   -2.4896 C.2       1 UNK         0.5154 
     36 O          27.6678   -2.5035   -3.3435 O.2       1 UNK        -0.5181 
     37 C          27.1816    2.0873   -4.9856 C.2       5 UNK         0.5014 
     38 O          27.6672    3.1478   -5.3822 O.2       5 UNK        -0.5248 
     39 N          25.8662    1.8215   -5.0139 N.am      6 UNK        -0.4434 
     40 CA         24.8349    2.7084   -5.5637 C.3       6 UNK         0.0363 
     41 CB         23.4499    2.1132   -5.2644 C.3       6 UNK        -0.1936 
     42 C          24.9810    2.9954   -7.0724 C.2       6 UNK         0.5081 
     43 O          24.4519    4.0028   -7.5421 O.2       6 UNK        -0.5248 
     44 N          25.7045    2.1321   -7.7968 N.am      7 UNK        -0.4718 
     45 CA         26.0609    2.2858   -9.2076 C.3       7 UNK         0.0273 
     46 CB         25.7469    0.9697   -9.9407 C.3       7 UNK        -0.1935 
     47 C          27.5263    2.7399   -9.3841 C.2       7 UNK         0.5018 
     48 O          28.0817    2.5840  -10.4736 O.2       7 UNK        -0.5186 
     49 N          28.1178    3.3203   -8.3272 N.am      8 UNK        -0.4240 
     50 CA         29.4430    3.9412   -8.2636 C.3       8 UNK         0.0235 
     51 CB         29.4765    5.2380   -9.1056 C.3       8 UNK        -0.2000 
     52 C          30.5728    2.9498   -8.5910 C.2       8 UNK         0.4941 
     53 O          30.8844    2.0982   -7.7605 O.2       8 UNK        -0.5273 
     54 N          31.1754    3.0802   -9.7808 N.am      9 UNK        -0.4262 
     55 CA         32.3169    2.2888  -10.2511 C.3       9 UNK         0.0264 
     56 CB         32.8667    2.9267  -11.5378 C.3       9 UNK        -0.1955 
     57 C          32.0222    0.7936  -10.4761 C.2       9 UNK         0.5031 
     58 O          32.9698    0.0172  -10.6110 O.2       9 UNK        -0.5390 
     59 N          30.7384    0.4058  -10.5096 N.am      10 UNK        -0.4204 
     60 CA         30.2672   -0.9667  -10.7247 C.3       10 UNK         0.0237 
     61 CB         28.7330   -0.9733  -10.7448 C.3       10 UNK        -0.1985 
     62 C          30.7856   -2.0002   -9.7064 C.2       10 UNK         0.4970 
     63 O          30.8544   -3.1813  -10.0487 O.2       10 UNK        -0.4914 
     64 N          31.1482   -1.5564   -8.4946 N.am      11 UNK        -0.4285 
     65 CA         31.8030   -2.3910   -7.4760 C.3       11 UNK         0.1007 
     66 C          33.2951   -2.7363   -7.7682 C.2       11 UNK         0.5703 
     67 N          33.9405   -2.1444   -8.7681 N.am      11 UNK        -0.7361 
     68 O          33.8740   -3.5731   -7.0795 O.2       11 UNK        -0.4986 
     69 C69        31.5829   -1.8283   -6.0483 C.3       12 UNK        -0.0947 
     70 S70        32.4238   -0.2390   -5.7391 S.3       12 UNK        -0.2240 
     71 C71        33.3846   -0.6319   -4.2438 C.3       12 UNK         0.0194 
     72 H72        27.2095   -6.6182   -5.9496 H         1 UNK         0.0906 
     73 H73        25.6714   -7.3080   -5.4280 H         1 UNK         0.0906 
     74 H74        25.7051   -5.7431   -6.2442 H         1 UNK         0.0906 
     75 H75        28.3707   -5.6994   -4.2712 H         1 UNK         0.3140 
     76 H76        27.3987   -5.2905   -1.6669 H         1 UNK         0.1085 
     77 H77        29.9078   -4.0040   -2.8760 H         1 UNK         0.0836 
     78 H78        29.8341   -5.6798   -2.3977 H         1 UNK         0.0836 
     79 H79        32.1019   -4.3588   -1.1294 H         1 UNK         0.0731 
     80 H80        31.9014   -3.5171    0.3860 H         1 UNK         0.0731 
     81 H81        32.9421   -2.9230   -2.8127 H         1 UNK         0.1312 
     82 H82        31.8392    1.2120   -2.9963 H         1 UNK         0.1406 
     83 H83        30.1654   -1.3217    0.0354 H         1 UNK         0.1631 
     84 H84        30.7452    1.9242   -0.3664 H         1 UNK         0.0717 
     85 H85        29.3432    0.8990   -0.1697 H         1 UNK         0.0717 
     86 H86        28.4898   -0.0790   -2.6134 H         1 UNK         0.0934 
     87 H87        27.1301    0.9966   -2.5131 H         1 UNK         0.0934 
     88 H88        29.1144    1.1677   -4.8481 H         1 UNK         0.0739 
     89 H89        27.5662   -1.0961   -4.4004 H         1 UNK         0.3093 
     90 H90        26.6920   -1.9463   -7.7693 H         1 UNK         0.0818 
     91 H91        28.5940   -3.2109   -5.7255 H         1 UNK         0.0819 
     92 H92        27.6996   -4.0860   -6.9683 H         1 UNK         0.0819 
     93 H93        28.9131   -2.9140   -7.4301 H         1 UNK         0.0819 
     94 H94        26.1764   -2.8874   -5.0317 H         1 UNK         0.3041 
     95 H95        22.9908   -1.4030   -4.8190 H         1 UNK         0.0784 
     96 H96        22.3789   -3.3635   -6.2100 H         1 UNK         0.0793 
     97 H97        23.5530   -4.3669   -5.3731 H         1 UNK         0.0793 
     98 H98        22.1545   -3.7315   -4.5077 H         1 UNK         0.0793 
     99 H99        24.4376   -3.3606   -3.2480 H         1 UNK         0.3024 
    100 H100       26.2921   -0.9724   -1.3513 H         1 UNK         0.1171 
    101 H101       25.0771   -1.9570    0.5671 H         1 UNK         0.0786 
    102 H102       24.0203   -0.8633   -0.3088 H         1 UNK         0.0786 
    103 H103       23.8345   -2.6005   -0.5076 H         1 UNK         0.0786 
    104 H104       26.0238   -3.7477   -0.9593 H         1 UNK         0.2977 
    105 H105       25.5371    0.9561   -4.5919 H         1 UNK         0.3127 
    106 H106       24.9159    3.6655   -5.0444 H         1 UNK         0.0770 
    107 H107       23.3185    1.1421   -5.7428 H         1 UNK         0.0814 
    108 H108       22.6556    2.7666   -5.6280 H         1 UNK         0.0814 
    109 H109       23.2961    1.9825   -4.1930 H         1 UNK         0.0814 
    110 H110       26.1468    1.3514   -7.3250 H         1 UNK         0.2983 
    111 H111       25.4512    3.0679   -9.6648 H         1 UNK         0.0947 
    112 H112       26.0579    1.0048  -10.9854 H         1 UNK         0.0806 
    113 H113       24.6761    0.7661   -9.9314 H         1 UNK         0.0806 
    114 H114       26.2417    0.1207   -9.4720 H         1 UNK         0.0806 
    115 H115       27.6202    3.3055   -7.4431 H         1 UNK         0.3000 
    116 H116       29.5916    4.2273   -7.2210 H         1 UNK         0.0850 
    117 H117       30.4522    5.7223   -9.0450 H         1 UNK         0.0810 
    118 H118       28.7433    5.9564   -8.7385 H         1 UNK         0.0810 
    119 H119       29.2573    5.0597  -10.1588 H         1 UNK         0.0810 
    120 H120       30.8242    3.7869  -10.4113 H         1 UNK         0.3040 
    121 H121       33.0926    2.3445   -9.4844 H         1 UNK         0.0766 
    122 H122       33.1727    3.9597  -11.3711 H         1 UNK         0.0812 
    123 H123       32.1271    2.9188  -12.3396 H         1 UNK         0.0812 
    124 H124       33.7436    2.3871  -11.8988 H         1 UNK         0.0812 
    125 H125       30.0270    1.1151  -10.3824 H         1 UNK         0.3205 
    126 H126       30.6242   -1.2772  -11.7087 H         1 UNK         0.0754 
    127 H127       28.3457   -1.9670  -10.9745 H         1 UNK         0.0769 
    128 H128       28.3374   -0.2875  -11.4943 H         1 UNK         0.0769 
    129 H129       28.3324   -0.6832   -9.7746 H         1 UNK         0.0769 
    130 H130       31.0688   -0.5708   -8.2818 H         1 UNK         0.2981 
    131 H131       31.2940   -3.3564   -7.4935 H         1 UNK         0.0541 
    132 H132       33.4869   -1.4456   -9.3474 H         1 UNK         0.3459 
    133 H133       34.9022   -2.3876   -8.9419 H         1 UNK         0.3459 
    134 H134       30.5200   -1.6746   -5.8638 H         1 UNK         0.0612 
    135 H135       31.9007   -2.5658   -5.3099 H         1 UNK         0.0612 
    136 H136       34.0730    0.1897   -4.0418 H         1 UNK         0.0624 
    137 H137       34.0008   -1.5129   -4.4309 H         1 UNK         0.0624 
@<TRIPOS>BOND
     1    1    2 1    
     2    1   72 1    
     3    1   73 1    
     4    1   74 1    
     5    2    3 2    
     6    2    4 am   BACKBONE|DICT|INTERRES
     7    4    5 1    
     8    4   75 1    
     9    5    6 1    
    10    5   35 1    
    11    5   76 1    
    12    6    7 1    
    13    6   77 1    
    14    6   78 1    
    15    7    8 1    
    16    8    9 1    
    17    8   79 1    
    18    8   80 1    
    19    9   10 ar   
    20    9   14 ar   
    21   10   11 ar   
    22   10   81 1    
    23   11   12 ar   
    24   11   71 1    
    25   12   13 ar   
    26   12   82 1    
    27   13   14 ar   
    28   13   15 1    
    29   14   83 1    
    30   15   16 1    
    31   15   84 1    
    32   15   85 1    
    33   16   17 1    
    34   17   18 1    
    35   17   86 1    
    36   17   87 1    
    37   18   19 1    
    38   18   37 1    
    39   18   88 1    
    40   19   20 am   BACKBONE|DICT|INTERRES
    41   19   89 1    
    42   20   21 2    
    43   20   22 1    
    44   22   23 1    
    45   22   24 1    
    46   22   90 1    
    47   23   91 1    
    48   23   92 1    
    49   23   93 1    
    50   24   25 am   BACKBONE|DICT|INTERRES
    51   24   94 1    
    52   25   26 2    
    53   25   27 1    
    54   27   28 1    
    55   27   29 1    
    56   27   95 1    
    57   28   96 1    
    58   28   97 1    
    59   28   98 1    
    60   29   30 am   BACKBONE|DICT|INTERRES
    61   29   99 1    
    62   30   31 2    
    63   30   32 1    
    64   32   33 1    
    65   32   34 1    
    66   32  100 1    
    67   33  101 1    
    68   33  102 1    
    69   33  103 1    
    70   34   35 am   BACKBONE|DICT|INTERRES
    71   34  104 1    
    72   35   36 2    
    73   37   38 2    
    74   37   39 am   BACKBONE|DICT|INTERRES
    75   39   40 1    
    76   39  105 1    
    77   40   41 1    
    78   40   42 1    
    79   40  106 1    
    80   41  107 1    
    81   41  108 1    
    82   41  109 1    
    83   42   43 2    
    84   42   44 am   BACKBONE|DICT|INTERRES
    85   44   45 1    
    86   44  110 1    
    87   45   46 1    
    88   45   47 1    
    89   45  111 1    
    90   46  112 1    
    91   46  113 1    
    92   46  114 1    
    93   47   48 2    
    94   47   49 am   BACKBONE|DICT|INTERRES
    95   49   50 1    
    96   49  115 1    
    97   50   51 1    
    98   50   52 1    
    99   50  116 1    
   100   51  117 1    
   101   51  118 1    
   102   51  119 1    
   103   52   53 2    
   104   52   54 am   BACKBONE|DICT|INTERRES
   105   54   55 1    
   106   54  120 1    
   107   55   56 1    
   108   55   57 1    
   109   55  121 1    
   110   56  122 1    
   111   56  123 1    
   112   56  124 1    
   113   57   58 2    
   114   57   59 am   BACKBONE|DICT|INTERRES
   115   59   60 1    
   116   59  125 1    
   117   60   61 1    
   118   60   62 1    
   119   60  126 1    
   120   61  127 1    
   121   61  128 1    
   122   61  129 1    
   123   62   63 2    
   124   62   64 am   BACKBONE|DICT|INTERRES
   125   64   65 1    
   126   64  130 1    
   127   65   66 1    
   128   65   69 1    
   129   65  131 1    
   130   66   67 am   BACKBONE|DICT|INTERRES
   131   66   68 2    
   132   67  132 1    
   133   67  133 1    
   134   69   70 1    
   135   69  134 1    
   136   69  135 1    
   137   70   71 1    
   138   71  136 1    
   139   71  137 1    
@<TRIPOS>SUBSTRUCTURE
     1 UNK         1 GROUP             0       ****    0 ROOT    
