@<TRIPOS>MOLECULE
3R137
137   139    1
SMALL
USER_CHARGES


@<TRIPOS>ATOM
      1 CA         27.5399   -3.9351    2.0303 C.3       0 UNK        -0.2020 
      2 C          27.8950   -3.3156    0.6871 C.2       0 UNK         0.4855 
      3 O          28.5386   -2.2677    0.6483 O.2       0 UNK        -0.5197 
      4 N          27.4692   -3.9488   -0.4138 N.am      1 UNK        -0.4892 
      5 CA         27.7443   -3.5233   -1.7950 C.3       1 UNK         0.0835 
      6 C6         27.7765   -4.7307   -2.7670 C.3       12 UNK        -0.0855 
      7 S7         29.2665   -5.7564   -2.5079 S.3       12 UNK        -0.2931 
      8 C8         30.2645   -5.3789   -3.9901 C.3       12 UNK         0.0378 
      9 C9         31.0328   -4.0663   -3.8740 C.ar      12 UNK        -0.0802 
     10 C10        32.4148   -4.0675   -3.6519 C.ar      12 UNK        -0.0944 
     11 C11        33.1294   -2.8642   -3.6063 C.ar      12 UNK        -0.0787 
     12 C12        32.4498   -1.6526   -3.7516 C.ar      12 UNK        -0.0862 
     13 C13        31.0786   -1.6403   -4.0006 C.ar      12 UNK        -0.0733 
     14 C14        30.3770   -2.8462   -4.0559 C.ar      12 UNK        -0.0832 
     15 C15        30.3613   -0.3358   -4.2885 C.3       12 UNK         0.0240 
     16 S16        29.3362    0.1898   -2.8771 S.3       12 UNK        -0.2522 
     17 C17        28.2512    1.5045   -3.5464 C.3       12 UNK        -0.0967 
     18 CA         27.8849    1.3991   -5.0482 C.3       5 UNK         0.0660 
     19 N          27.2415    0.1264   -5.3991 N.am      5 UNK        -0.4015 
     20 C          27.0768   -0.3122   -6.6557 C.2       4 UNK         0.4946 
     21 O          27.4834    0.2940   -7.6446 O.2       4 UNK        -0.5353 
     22 CA         26.3183   -1.6289   -6.8633 C.3       4 UNK         0.0277 
     23 CB         27.2804   -2.8261   -6.8440 C.3       4 UNK        -0.1981 
     24 N          25.2647   -1.8094   -5.8660 N.am      4 UNK        -0.4209 
     25 C          24.0663   -1.2127   -5.9302 C.2       3 UNK         0.4942 
     26 O          23.7056   -0.4998   -6.8672 O.2       3 UNK        -0.5208 
     27 CA         23.1202   -1.4220   -4.7345 C.3       3 UNK         0.0250 
     28 CB         22.3088   -2.7158   -4.9080 C.3       3 UNK        -0.1990 
     29 N          23.8102   -1.4459   -3.4407 N.am      3 UNK        -0.4232 
     30 C          24.4761   -0.4056   -2.9213 C.2       2 UNK         0.4993 
     31 O          24.5898    0.6852   -3.4806 O.2       2 UNK        -0.5286 
     32 CA         25.1743   -0.6284   -1.5704 C.3       2 UNK         0.0209 
     33 CB         24.1674   -0.4983   -0.4163 C.3       2 UNK        -0.1931 
     34 N          25.9221   -1.8856   -1.4268 N.am      2 UNK        -0.4546 
     35 C          26.8072   -2.3997   -2.2956 C.2       1 UNK         0.5154 
     36 O          26.9217   -2.0077   -3.4580 O.2       1 UNK        -0.5181 
     37 C          27.0423    2.6053   -5.5007 C.2       5 UNK         0.5014 
     38 O          27.6089    3.5651   -6.0236 O.2       5 UNK        -0.5248 
     39 N          25.7115    2.5190   -5.3534 N.am      6 UNK        -0.4434 
     40 CA         24.7513    3.5050   -5.8605 C.3       6 UNK         0.0363 
     41 CB         23.3409    3.1408   -5.3704 C.3       6 UNK        -0.1936 
     42 C          24.7694    3.6372   -7.3951 C.2       6 UNK         0.5081 
     43 O          24.5816    4.7391   -7.9110 O.2       6 UNK        -0.5248 
     44 N          25.0143    2.5200   -8.0921 N.am      7 UNK        -0.4718 
     45 CA         25.1632    2.4592   -9.5480 C.3       7 UNK         0.0273 
     46 CB         24.7833    1.0440  -10.0150 C.3       7 UNK        -0.1935 
     47 C          26.5816    2.8173  -10.0344 C.2       7 UNK         0.5018 
     48 O          26.7578    3.0271  -11.2351 O.2       7 UNK        -0.5186 
     49 N          27.5605    2.8434   -9.1150 N.am      8 UNK        -0.4240 
     50 CA         29.0101    2.9393   -9.3414 C.3       8 UNK         0.0235 
     51 CB         29.3931    4.3292   -9.8917 C.3       8 UNK        -0.2000 
     52 C          29.5430    1.7739  -10.2033 C.2       8 UNK         0.4941 
     53 O          30.3714    1.9841  -11.0913 O.2       8 UNK        -0.5273 
     54 N          29.0242    0.5677   -9.9412 N.am      9 UNK        -0.4262 
     55 CA         29.2051   -0.6284  -10.7648 C.3       9 UNK         0.0264 
     56 CB         27.8496   -1.3510  -10.8630 C.3       9 UNK        -0.1955 
     57 C          30.2883   -1.5897  -10.2459 C.2       9 UNK         0.5031 
     58 O          30.5730   -2.5731  -10.9323 O.2       9 UNK        -0.5390 
     59 N          30.8642   -1.3275   -9.0659 N.am      10 UNK        -0.4204 
     60 CA         31.8763   -2.1744   -8.4344 C.3       10 UNK         0.0237 
     61 CB         31.1921   -3.1564   -7.4697 C.3       10 UNK        -0.1985 
     62 C          32.9127   -1.3099   -7.7086 C.2       10 UNK         0.4970 
     63 O          32.5525   -0.2661   -7.1586 O.2       10 UNK        -0.4914 
     64 N          34.1683   -1.7797   -7.7261 N.am      11 UNK        -0.4285 
     65 CA         35.3701   -1.1302   -7.1727 C.3       11 UNK         0.1007 
     66 C          35.6095    0.3056   -7.7388 C.2       11 UNK         0.5703 
     67 N          36.2158    1.2146   -6.9854 N.am      11 UNK        -0.7361 
     68 O          35.3031    0.5869   -8.8965 O.2       11 UNK        -0.4986 
     69 C69        35.4628   -1.2460   -5.6220 C.3       12 UNK        -0.0947 
     70 S70        35.4923   -2.9790   -5.0409 S.3       12 UNK        -0.2240 
     71 C71        34.6398   -2.8721   -3.4337 C.3       12 UNK         0.0194 
     72 H72        26.9640   -4.8536    1.9178 H         1 UNK         0.0906 
     73 H73        28.4477   -4.1710    2.5852 H         1 UNK         0.0906 
     74 H74        26.9509   -3.2357    2.6230 H         1 UNK         0.0906 
     75 H75        26.9496   -4.8107   -0.3194 H         1 UNK         0.3140 
     76 H76        28.7366   -3.0667   -1.8057 H         1 UNK         0.1085 
     77 H77        27.7441   -4.4195   -3.8116 H         1 UNK         0.0836 
     78 H78        26.8926   -5.3555   -2.6280 H         1 UNK         0.0836 
     79 H79        29.6281   -5.3604   -4.8762 H         1 UNK         0.0731 
     80 H80        30.9628   -6.2025   -4.1468 H         1 UNK         0.0731 
     81 H81        32.9413   -5.0057   -3.5410 H         1 UNK         0.1312 
     82 H82        32.9902   -0.7180   -3.7100 H         1 UNK         0.1406 
     83 H83        29.3190   -2.8250   -4.2625 H         1 UNK         0.1631 
     84 H84        29.7637   -0.5019   -5.1816 H         1 UNK         0.0717 
     85 H85        31.0703    0.4559   -4.5360 H         1 UNK         0.0717 
     86 H86        27.3441    1.5203   -2.9401 H         1 UNK         0.0934 
     87 H87        28.7506    2.4564   -3.3542 H         1 UNK         0.0934 
     88 H88        28.8099    1.4697   -5.6234 H         1 UNK         0.0739 
     89 H89        26.9499   -0.4701   -4.6296 H         1 UNK         0.3093 
     90 H90        25.8593   -1.5892   -7.8536 H         1 UNK         0.0818 
     91 H91        27.7516   -2.9513   -5.8715 H         1 UNK         0.0819 
     92 H92        26.7610   -3.7536   -7.0848 H         1 UNK         0.0819 
     93 H93        28.0758   -2.7005   -7.5800 H         1 UNK         0.0819 
     94 H94        25.5210   -2.3004   -5.0179 H         1 UNK         0.3041 
     95 H95        22.4229   -0.5815   -4.7210 H         1 UNK         0.0784 
     96 H96        21.7693   -2.7129   -5.8563 H         1 UNK         0.0793 
     97 H97        22.9480   -3.5996   -4.8993 H         1 UNK         0.0793 
     98 H98        21.5675   -2.8286   -4.1165 H         1 UNK         0.0793 
     99 H99        23.7852   -2.3093   -2.9177 H         1 UNK         0.3024 
    100 H100       25.9057    0.1752   -1.4646 H         1 UNK         0.1171 
    101 H101       24.6702   -0.4952    0.5511 H         1 UNK         0.0786 
    102 H102       23.6065    0.4349   -0.4887 H         1 UNK         0.0786 
    103 H103       23.4442   -1.3148   -0.4162 H         1 UNK         0.0786 
    104 H104       25.9090   -2.3034   -0.5079 H         1 UNK         0.2977 
    105 H105       25.3230    1.7298   -4.8386 H         1 UNK         0.3127 
    106 H106       25.0205    4.4772   -5.4423 H         1 UNK         0.0770 
    107 H107       23.0325    2.1571   -5.7276 H         1 UNK         0.0814 
    108 H108       22.6044    3.8640   -5.7231 H         1 UNK         0.0814 
    109 H109       23.2902    3.1308   -4.2815 H         1 UNK         0.0814 
    110 H110       25.1307    1.6515   -7.5873 H         1 UNK         0.2983 
    111 H111       24.4717    3.1687  -10.0081 H         1 UNK         0.0947 
    112 H112       24.8471    0.9578  -11.1006 H         1 UNK         0.0806 
    113 H113       23.7617    0.7926   -9.7293 H         1 UNK         0.0806 
    114 H114       25.4437    0.2887   -9.5880 H         1 UNK         0.0806 
    115 H115       27.2919    2.6444   -8.1599 H         1 UNK         0.3000 
    116 H116       29.4775    2.8312   -8.3613 H         1 UNK         0.0850 
    117 H117       30.4765    4.4435   -9.9429 H         1 UNK         0.0810 
    118 H118       29.0133    5.1258   -9.2518 H         1 UNK         0.0810 
    119 H119       29.0019    4.4900  -10.8967 H         1 UNK         0.0810 
    120 H120       28.3813    0.4827   -9.1520 H         1 UNK         0.3040 
    121 H121       29.4998   -0.3343  -11.7744 H         1 UNK         0.0766 
    122 H122       27.0909   -0.7060  -11.3063 H         1 UNK         0.0812 
    123 H123       27.4901   -1.6692   -9.8842 H         1 UNK         0.0812 
    124 H124       27.9204   -2.2406  -11.4904 H         1 UNK         0.0812 
    125 H125       30.6414   -0.4697   -8.5785 H         1 UNK         0.3205 
    126 H126       32.4045   -2.7480   -9.1994 H         1 UNK         0.0754 
    127 H127       31.9231   -3.7200   -6.8879 H         1 UNK         0.0769 
    128 H128       30.5773   -3.8770   -8.0091 H         1 UNK         0.0769 
    129 H129       30.5470   -2.6297   -6.7682 H         1 UNK         0.0769 
    130 H130       34.3452   -2.6463   -8.2119 H         1 UNK         0.2981 
    131 H131       36.2045   -1.7041   -7.5768 H         1 UNK         0.0541 
    132 H132       36.4975    1.0055   -6.0411 H         1 UNK         0.3459 
    133 H133       36.3872    2.1309   -7.3690 H         1 UNK         0.3459 
    134 H134       34.6422   -0.7002   -5.1617 H         1 UNK         0.0612 
    135 H135       36.3808   -0.7878   -5.2521 H         1 UNK         0.0612 
    136 H136       34.9731   -1.9828   -2.8964 H         1 UNK         0.0624 
    137 H137       34.9355   -3.7265   -2.8231 H         1 UNK         0.0624 
@<TRIPOS>BOND
     1    1    2 1    
     2    1   72 1    
     3    1   73 1    
     4    1   74 1    
     5    2    3 2    
     6    2    4 am   BACKBONE|DICT|INTERRES
     7    4    5 1    
     8    4   75 1    
     9    5    6 1    
    10    5   35 1    
    11    5   76 1    
    12    6    7 1    
    13    6   77 1    
    14    6   78 1    
    15    7    8 1    
    16    8    9 1    
    17    8   79 1    
    18    8   80 1    
    19    9   10 ar   
    20    9   14 ar   
    21   10   11 ar   
    22   10   81 1    
    23   11   12 ar   
    24   11   71 1    
    25   12   13 ar   
    26   12   82 1    
    27   13   14 ar   
    28   13   15 1    
    29   14   83 1    
    30   15   16 1    
    31   15   84 1    
    32   15   85 1    
    33   16   17 1    
    34   17   18 1    
    35   17   86 1    
    36   17   87 1    
    37   18   19 1    
    38   18   37 1    
    39   18   88 1    
    40   19   20 am   BACKBONE|DICT|INTERRES
    41   19   89 1    
    42   20   21 2    
    43   20   22 1    
    44   22   23 1    
    45   22   24 1    
    46   22   90 1    
    47   23   91 1    
    48   23   92 1    
    49   23   93 1    
    50   24   25 am   BACKBONE|DICT|INTERRES
    51   24   94 1    
    52   25   26 2    
    53   25   27 1    
    54   27   28 1    
    55   27   29 1    
    56   27   95 1    
    57   28   96 1    
    58   28   97 1    
    59   28   98 1    
    60   29   30 am   BACKBONE|DICT|INTERRES
    61   29   99 1    
    62   30   31 2    
    63   30   32 1    
    64   32   33 1    
    65   32   34 1    
    66   32  100 1    
    67   33  101 1    
    68   33  102 1    
    69   33  103 1    
    70   34   35 am   BACKBONE|DICT|INTERRES
    71   34  104 1    
    72   35   36 2    
    73   37   38 2    
    74   37   39 am   BACKBONE|DICT|INTERRES
    75   39   40 1    
    76   39  105 1    
    77   40   41 1    
    78   40   42 1    
    79   40  106 1    
    80   41  107 1    
    81   41  108 1    
    82   41  109 1    
    83   42   43 2    
    84   42   44 am   BACKBONE|DICT|INTERRES
    85   44   45 1    
    86   44  110 1    
    87   45   46 1    
    88   45   47 1    
    89   45  111 1    
    90   46  112 1    
    91   46  113 1    
    92   46  114 1    
    93   47   48 2    
    94   47   49 am   BACKBONE|DICT|INTERRES
    95   49   50 1    
    96   49  115 1    
    97   50   51 1    
    98   50   52 1    
    99   50  116 1    
   100   51  117 1    
   101   51  118 1    
   102   51  119 1    
   103   52   53 2    
   104   52   54 am   BACKBONE|DICT|INTERRES
   105   54   55 1    
   106   54  120 1    
   107   55   56 1    
   108   55   57 1    
   109   55  121 1    
   110   56  122 1    
   111   56  123 1    
   112   56  124 1    
   113   57   58 2    
   114   57   59 am   BACKBONE|DICT|INTERRES
   115   59   60 1    
   116   59  125 1    
   117   60   61 1    
   118   60   62 1    
   119   60  126 1    
   120   61  127 1    
   121   61  128 1    
   122   61  129 1    
   123   62   63 2    
   124   62   64 am   BACKBONE|DICT|INTERRES
   125   64   65 1    
   126   64  130 1    
   127   65   66 1    
   128   65   69 1    
   129   65  131 1    
   130   66   67 am   BACKBONE|DICT|INTERRES
   131   66   68 2    
   132   67  132 1    
   133   67  133 1    
   134   69   70 1    
   135   69  134 1    
   136   69  135 1    
   137   70   71 1    
   138   71  136 1    
   139   71  137 1    
@<TRIPOS>SUBSTRUCTURE
     1 UNK         1 GROUP             0       ****    0 ROOT    
