@<TRIPOS>MOLECULE
3R137
137   139    1
SMALL
USER_CHARGES


@<TRIPOS>ATOM
      1 CA         25.4493   -6.9946   -4.0281 C.3       0 UNK        -0.2020 
      2 C          25.4392   -6.0836   -2.8096 C.2       0 UNK         0.4855 
      3 O          24.4570   -6.0627   -2.0667 O.2       0 UNK        -0.5197 
      4 N          26.5303   -5.3389   -2.5974 N.am      1 UNK        -0.4892 
      5 CA         26.6852   -4.3484   -1.5256 C.3       1 UNK         0.0835 
      6 C6         28.1690   -3.9431   -1.3201 C.3       12 UNK        -0.0855 
      7 S7         29.2838   -5.3760   -1.0964 S.3       12 UNK        -0.2931 
      8 C8         30.9404   -4.6097   -1.2210 C.3       12 UNK         0.0378 
      9 C9         31.1123   -3.7324   -2.4574 C.ar      12 UNK        -0.0802 
     10 C10        31.6375   -2.4430   -2.3331 C.ar      12 UNK        -0.0944 
     11 C11        31.7447   -1.5948   -3.4404 C.ar      12 UNK        -0.0787 
     12 C12        31.2934   -2.0541   -4.6869 C.ar      12 UNK        -0.0862 
     13 C13        30.7737   -3.3465   -4.8287 C.ar      12 UNK        -0.0733 
     14 C14        30.7191   -4.1902   -3.7172 C.ar      12 UNK        -0.0832 
     15 C15        30.2707   -3.8263   -6.1851 C.3       12 UNK         0.0240 
     16 S16        28.6114   -4.5952   -6.1423 S.3       12 UNK        -0.2522 
     17 C17        27.5722   -3.3431   -5.3144 C.3       12 UNK        -0.0967 
     18 CA         26.9379   -2.3132   -6.2777 C.3       5 UNK         0.0660 
     19 N          25.6530   -1.8121   -5.7796 N.am      5 UNK        -0.4015 
     20 C          24.7936   -1.1077   -6.5315 C.2       4 UNK         0.4946 
     21 O          24.9725   -0.8502   -7.7229 O.2       4 UNK        -0.5353 
     22 CA         23.5379   -0.5700   -5.8301 C.3       4 UNK         0.0277 
     23 CB         22.5572   -1.7108   -5.5101 C.3       4 UNK        -0.1981 
     24 N          23.8322    0.1815   -4.6082 N.am      4 UNK        -0.4209 
     25 C          24.5953    1.2832   -4.5268 C.2       3 UNK         0.4942 
     26 O          25.1814    1.7858   -5.4833 O.2       3 UNK        -0.5208 
     27 CA         24.7342    1.9398   -3.1413 C.3       3 UNK         0.0250 
     28 CB         23.7376    3.1008   -2.9967 C.3       3 UNK        -0.1990 
     29 N          24.5379    0.9894   -2.0447 N.am      3 UNK        -0.4232 
     30 C          25.4042    0.0172   -1.7307 C.2       2 UNK         0.4993 
     31 O          26.5207   -0.0843   -2.2471 O.2       2 UNK        -0.5286 
     32 CA         24.9334   -1.0065   -0.6733 C.3       2 UNK         0.0209 
     33 CB         23.4141   -1.2900   -0.7396 C.3       2 UNK        -0.1931 
     34 N          25.6729   -2.2752   -0.7216 N.am      2 UNK        -0.4546 
     35 C          25.8147   -3.0942   -1.7757 C.2       1 UNK         0.5154 
     36 O          25.3285   -2.8757   -2.8931 O.2       1 UNK        -0.5181 
     37 C          27.9065   -1.1554   -6.5744 C.2       5 UNK         0.5014 
     38 O          28.5675   -1.1699   -7.6131 O.2       5 UNK        -0.5248 
     39 N          27.9545   -0.1632   -5.6729 N.am      6 UNK        -0.4434 
     40 CA         28.8382    0.9963   -5.7749 C.3       6 UNK         0.0363 
     41 CB         28.7423    1.8475   -4.5004 C.3       6 UNK        -0.1936 
     42 C          28.5940    1.8425   -7.0312 C.2       6 UNK         0.5081 
     43 O          29.5544    2.1700   -7.7271 O.2       6 UNK        -0.5248 
     44 N          27.3212    2.1361   -7.3280 N.am      7 UNK        -0.4718 
     45 CA         26.8981    2.8599   -8.5287 C.3       7 UNK         0.0273 
     46 CB         25.4069    3.2128   -8.4125 C.3       7 UNK        -0.1935 
     47 C          27.1667    2.0879   -9.8315 C.2       7 UNK         0.5018 
     48 O          27.4567    2.7164  -10.8500 O.2       7 UNK        -0.5186 
     49 N          27.0680    0.7521   -9.7799 N.am      8 UNK        -0.4240 
     50 CA         27.3464   -0.1352  -10.9081 C.3       8 UNK         0.0235 
     51 CB         26.7140   -1.5140  -10.6542 C.3       8 UNK        -0.2000 
     52 C          28.8517   -0.2628  -11.1908 C.2       8 UNK         0.4941 
     53 O          29.2620   -0.1234  -12.3439 O.2       8 UNK        -0.5273 
     54 N          29.6422   -0.5423  -10.1456 N.am      9 UNK        -0.4262 
     55 CA         31.0805   -0.7954  -10.2536 C.3       9 UNK         0.0264 
     56 CB         31.5390   -1.6404   -9.0554 C.3       9 UNK        -0.1955 
     57 C          31.9362    0.4757  -10.3536 C.2       9 UNK         0.5031 
     58 O          33.0220    0.4045  -10.9314 O.2       9 UNK        -0.5390 
     59 N          31.4683    1.5880   -9.7639 N.am      10 UNK        -0.4204 
     60 CA         32.2033    2.8431   -9.5511 C.3       10 UNK         0.0237 
     61 CB         32.5139    3.5494  -10.8888 C.3       10 UNK        -0.1985 
     62 C          33.4465    2.6252   -8.6636 C.2       10 UNK         0.4970 
     63 O          34.5430    3.0717   -9.0074 O.2       10 UNK        -0.4914 
     64 N          33.2465    1.9006   -7.5542 N.am      11 UNK        -0.4285 
     65 CA         34.2770    1.5376   -6.5704 C.3       11 UNK         0.1007 
     66 C          34.9002    2.7545   -5.8256 C.2       11 UNK         0.5703 
     67 N          36.0990    2.5949   -5.2803 N.am      11 UNK        -0.7361 
     68 O          34.3052    3.8256   -5.7137 O.2       11 UNK        -0.4986 
     69 C69        33.7626    0.4410   -5.5957 C.3       12 UNK        -0.0947 
     70 S70        32.3058    0.9559   -4.6230 S.3       12 UNK        -0.2240 
     71 C71        32.3401   -0.2007   -3.2105 C.3       12 UNK         0.0194 
     72 H72        24.6152   -6.7496   -4.6852 H         1 UNK         0.0906 
     73 H73        26.3708   -6.8979   -4.6025 H         1 UNK         0.0906 
     74 H74        25.3479   -8.0351   -3.7207 H         1 UNK         0.0906 
     75 H75        27.3159   -5.4162   -3.2264 H         1 UNK         0.3140 
     76 H76        26.3284   -4.8114   -0.6026 H         1 UNK         0.1085 
     77 H77        28.5070   -3.3497   -2.1700 H         1 UNK         0.0836 
     78 H78        28.2781   -3.3003   -0.4448 H         1 UNK         0.0836 
     79 H79        31.1182   -4.0315   -0.3128 H         1 UNK         0.0731 
     80 H80        31.6947   -5.3973   -1.2383 H         1 UNK         0.0731 
     81 H81        31.9566   -2.0891   -1.3619 H         1 UNK         0.1312 
     82 H82        31.3398   -1.4137   -5.5549 H         1 UNK         0.1406 
     83 H83        30.3208   -5.1901   -3.8232 H         1 UNK         0.1631 
     84 H84        30.2466   -3.0018   -6.8934 H         1 UNK         0.0717 
     85 H85        30.9810   -4.5503   -6.5858 H         1 UNK         0.0717 
     86 H86        26.7717   -3.9137   -4.8467 H         1 UNK         0.0934 
     87 H87        28.1072   -2.8647   -4.4925 H         1 UNK         0.0934 
     88 H88        26.7305   -2.8153   -7.2256 H         1 UNK         0.0739 
     89 H89        25.4327   -1.9981   -4.8056 H         1 UNK         0.3093 
     90 H90        23.0469    0.1167   -6.5229 H         1 UNK         0.0818 
     91 H91        21.6137   -1.3256   -5.1230 H         1 UNK         0.0819 
     92 H92        22.3248   -2.2884   -6.4060 H         1 UNK         0.0819 
     93 H93        22.9643   -2.4035   -4.7718 H         1 UNK         0.0819 
     94 H94        23.4054   -0.1582   -3.7600 H         1 UNK         0.3041 
     95 H95        25.7441    2.3475   -3.0658 H         1 UNK         0.0784 
     96 H96        23.8811    3.8371   -3.7891 H         1 UNK         0.0793 
     97 H97        22.7035    2.7584   -3.0541 H         1 UNK         0.0793 
     98 H98        23.8683    3.6205   -2.0472 H         1 UNK         0.0793 
     99 H99        23.6557    1.0334   -1.5550 H         1 UNK         0.3024 
    100 H100       25.1524   -0.5589    0.2977 H         1 UNK         0.1171 
    101 H101       23.1274   -2.0571   -0.0198 H         1 UNK         0.0786 
    102 H102       22.8240   -0.4050   -0.5001 H         1 UNK         0.0786 
    103 H103       23.1085   -1.6382   -1.7272 H         1 UNK         0.0786 
    104 H104       26.1465   -2.5232    0.1358 H         1 UNK         0.2977 
    105 H105       27.3638   -0.2144   -4.8543 H         1 UNK         0.3127 
    106 H106       29.8502    0.6029   -5.8535 H         1 UNK         0.0770 
    107 H107       27.7462    2.2693   -4.3703 H         1 UNK         0.0814 
    108 H108       29.4473    2.6790   -4.5363 H         1 UNK         0.0814 
    109 H109       28.9795    1.2606   -3.6125 H         1 UNK         0.0814 
    110 H110       26.5845    1.8562   -6.6815 H         1 UNK         0.2983 
    111 H111       27.4690    3.7899   -8.5760 H         1 UNK         0.0947 
    112 H112       25.0649    3.7667   -9.2879 H         1 UNK         0.0806 
    113 H113       25.2144    3.8353   -7.5385 H         1 UNK         0.0806 
    114 H114       24.7885    2.3179   -8.3269 H         1 UNK         0.0806 
    115 H115       26.8141    0.3169   -8.9020 H         1 UNK         0.3000 
    116 H116       26.8761    0.2877  -11.7987 H         1 UNK         0.0850 
    117 H117       26.8926   -2.1859  -11.4946 H         1 UNK         0.0810 
    118 H118       25.6344   -1.4352  -10.5249 H         1 UNK         0.0810 
    119 H119       27.1200   -1.9918   -9.7622 H         1 UNK         0.0810 
    120 H120       29.2188   -0.6759   -9.2269 H         1 UNK         0.3040 
    121 H121       31.2611   -1.3792  -11.1590 H         1 UNK         0.0766 
    122 H122       31.0308   -2.6041   -9.0436 H         1 UNK         0.0812 
    123 H123       31.3413   -1.1366   -8.1085 H         1 UNK         0.0812 
    124 H124       32.6103   -1.8416   -9.1015 H         1 UNK         0.0812 
    125 H125       30.5791    1.5379   -9.2726 H         1 UNK         0.3205 
    126 H126       31.5383    3.4980   -8.9864 H         1 UNK         0.0754 
    127 H127       32.9472    4.5351  -10.7157 H         1 UNK         0.0769 
    128 H128       31.6088    3.6922  -11.4792 H         1 UNK         0.0769 
    129 H129       33.2242    2.9861  -11.4945 H         1 UNK         0.0769 
    130 H130       32.3049    1.6188   -7.3256 H         1 UNK         0.2981 
    131 H131       35.0891    1.0911   -7.1476 H         1 UNK         0.0541 
    132 H132       36.5168    3.3666   -4.7843 H         1 UNK         0.3459 
    133 H133       36.5959    1.7211   -5.3561 H         1 UNK         0.3459 
    134 H134       34.5588    0.1363   -4.9145 H         1 UNK         0.0612 
    135 H135       33.4977   -0.4547   -6.1591 H         1 UNK         0.0612 
    136 H136       33.3675   -0.3029   -2.8589 H         1 UNK         0.0624 
    137 H137       31.7868    0.2727   -2.3982 H         1 UNK         0.0624 
@<TRIPOS>BOND
     1    1    2 1    
     2    1   72 1    
     3    1   73 1    
     4    1   74 1    
     5    2    3 2    
     6    2    4 am   BACKBONE|DICT|INTERRES
     7    4    5 1    
     8    4   75 1    
     9    5    6 1    
    10    5   35 1    
    11    5   76 1    
    12    6    7 1    
    13    6   77 1    
    14    6   78 1    
    15    7    8 1    
    16    8    9 1    
    17    8   79 1    
    18    8   80 1    
    19    9   10 ar   
    20    9   14 ar   
    21   10   11 ar   
    22   10   81 1    
    23   11   12 ar   
    24   11   71 1    
    25   12   13 ar   
    26   12   82 1    
    27   13   14 ar   
    28   13   15 1    
    29   14   83 1    
    30   15   16 1    
    31   15   84 1    
    32   15   85 1    
    33   16   17 1    
    34   17   18 1    
    35   17   86 1    
    36   17   87 1    
    37   18   19 1    
    38   18   37 1    
    39   18   88 1    
    40   19   20 am   BACKBONE|DICT|INTERRES
    41   19   89 1    
    42   20   21 2    
    43   20   22 1    
    44   22   23 1    
    45   22   24 1    
    46   22   90 1    
    47   23   91 1    
    48   23   92 1    
    49   23   93 1    
    50   24   25 am   BACKBONE|DICT|INTERRES
    51   24   94 1    
    52   25   26 2    
    53   25   27 1    
    54   27   28 1    
    55   27   29 1    
    56   27   95 1    
    57   28   96 1    
    58   28   97 1    
    59   28   98 1    
    60   29   30 am   BACKBONE|DICT|INTERRES
    61   29   99 1    
    62   30   31 2    
    63   30   32 1    
    64   32   33 1    
    65   32   34 1    
    66   32  100 1    
    67   33  101 1    
    68   33  102 1    
    69   33  103 1    
    70   34   35 am   BACKBONE|DICT|INTERRES
    71   34  104 1    
    72   35   36 2    
    73   37   38 2    
    74   37   39 am   BACKBONE|DICT|INTERRES
    75   39   40 1    
    76   39  105 1    
    77   40   41 1    
    78   40   42 1    
    79   40  106 1    
    80   41  107 1    
    81   41  108 1    
    82   41  109 1    
    83   42   43 2    
    84   42   44 am   BACKBONE|DICT|INTERRES
    85   44   45 1    
    86   44  110 1    
    87   45   46 1    
    88   45   47 1    
    89   45  111 1    
    90   46  112 1    
    91   46  113 1    
    92   46  114 1    
    93   47   48 2    
    94   47   49 am   BACKBONE|DICT|INTERRES
    95   49   50 1    
    96   49  115 1    
    97   50   51 1    
    98   50   52 1    
    99   50  116 1    
   100   51  117 1    
   101   51  118 1    
   102   51  119 1    
   103   52   53 2    
   104   52   54 am   BACKBONE|DICT|INTERRES
   105   54   55 1    
   106   54  120 1    
   107   55   56 1    
   108   55   57 1    
   109   55  121 1    
   110   56  122 1    
   111   56  123 1    
   112   56  124 1    
   113   57   58 2    
   114   57   59 am   BACKBONE|DICT|INTERRES
   115   59   60 1    
   116   59  125 1    
   117   60   61 1    
   118   60   62 1    
   119   60  126 1    
   120   61  127 1    
   121   61  128 1    
   122   61  129 1    
   123   62   63 2    
   124   62   64 am   BACKBONE|DICT|INTERRES
   125   64   65 1    
   126   64  130 1    
   127   65   66 1    
   128   65   69 1    
   129   65  131 1    
   130   66   67 am   BACKBONE|DICT|INTERRES
   131   66   68 2    
   132   67  132 1    
   133   67  133 1    
   134   69   70 1    
   135   69  134 1    
   136   69  135 1    
   137   70   71 1    
   138   71  136 1    
   139   71  137 1    
@<TRIPOS>SUBSTRUCTURE
     1 UNK         1 GROUP             0       ****    0 ROOT    
