@<TRIPOS>MOLECULE
3R137
137   139    1
SMALL
USER_CHARGES


@<TRIPOS>ATOM
      1 CA         30.6566   -5.0714   -4.1591 C.3       0 UNK        -0.2020 
      2 C          29.5563   -5.0051   -3.1126 C.2       0 UNK         0.4855 
      3 O          28.9807   -6.0380   -2.7682 O.2       0 UNK        -0.5197 
      4 N          29.2721   -3.7994   -2.6048 N.am      1 UNK        -0.4892 
      5 CA         28.2400   -3.5371   -1.5947 C.3       1 UNK         0.0835 
      6 C6         28.7157   -2.5135   -0.5252 C.3       12 UNK        -0.0855 
      7 S7         30.2644   -3.0610    0.2836 S.3       12 UNK        -0.2931 
      8 C8         31.3010   -1.5601    0.2976 C.3       12 UNK         0.0378 
      9 C9         31.5233   -0.9707   -1.0894 C.ar      12 UNK        -0.0802 
     10 C10        32.2768   -1.6554   -2.0483 C.ar      12 UNK        -0.0944 
     11 C11        32.4792   -1.1143   -3.3237 C.ar      12 UNK        -0.0787 
     12 C12        31.9062    0.1288   -3.6289 C.ar      12 UNK        -0.0862 
     13 C13        31.1508    0.8231   -2.6807 C.ar      12 UNK        -0.0733 
     14 C14        30.9808    0.2761   -1.4064 C.ar      12 UNK        -0.0832 
     15 C15        30.5248    2.1650   -3.0434 C.3       12 UNK         0.0240 
     16 S16        28.7667    2.3045   -2.5707 S.3       12 UNK        -0.2522 
     17 C17        28.0335    0.7690   -3.2378 C.3       12 UNK        -0.0967 
     18 CA         28.0258    0.6697   -4.7821 C.3       5 UNK         0.0660 
     19 N          27.5609   -0.6395   -5.2354 N.am      5 UNK        -0.4015 
     20 C          27.9046   -1.2103   -6.3982 C.2       4 UNK         0.4946 
     21 O          28.7907   -0.7818   -7.1390 O.2       4 UNK        -0.5353 
     22 CA         27.1245   -2.4652   -6.8271 C.3       4 UNK         0.0277 
     23 CB         27.9509   -3.7343   -6.5807 C.3       4 UNK        -0.1981 
     24 N          25.8287   -2.5904   -6.1551 N.am      4 UNK        -0.4209 
     25 C          24.7539   -1.8512   -6.4664 C.2       3 UNK         0.4942 
     26 O          24.7483   -1.0020   -7.3565 O.2       3 UNK        -0.5208 
     27 CA         23.4854   -2.0534   -5.6188 C.3       3 UNK         0.0250 
     28 CB         22.6035   -3.1528   -6.2312 C.3       3 UNK        -0.1990 
     29 N          23.7448   -2.3655   -4.2105 N.am      3 UNK        -0.4232 
     30 C          24.4526   -1.6089   -3.3594 C.2       2 UNK         0.4993 
     31 O          24.9922   -0.5492   -3.6820 O.2       2 UNK        -0.5286 
     32 CA         24.6262   -2.1332   -1.9187 C.3       2 UNK         0.0209 
     33 CB         23.7328   -3.3504   -1.5859 C.3       2 UNK        -0.1931 
     34 N          26.0223   -2.4439   -1.5708 N.am      2 UNK        -0.4546 
     35 C          26.8960   -3.1806   -2.2774 C.2       1 UNK         0.5154 
     36 O          26.6573   -3.6016   -3.4132 O.2       1 UNK        -0.5181 
     37 C          27.1718    1.7678   -5.4404 C.2       5 UNK         0.5014 
     38 O          27.7311    2.6985   -6.0235 O.2       5 UNK        -0.5248 
     39 N          25.8389    1.6153   -5.3638 N.am      6 UNK        -0.4434 
     40 CA         24.8399    2.5425   -5.9065 C.3       6 UNK         0.0363 
     41 CB         23.4288    2.0325   -5.5793 C.3       6 UNK        -0.1936 
     42 C          24.9807    2.8002   -7.4161 C.2       6 UNK         0.5081 
     43 O          24.7749    3.9322   -7.8540 O.2       6 UNK        -0.5248 
     44 N          25.3952    1.7789   -8.1784 N.am      7 UNK        -0.4718 
     45 CA         25.7508    1.8493   -9.6009 C.3       7 UNK         0.0273 
     46 CB         25.7300    0.4220  -10.1804 C.3       7 UNK        -0.1935 
     47 C          27.0933    2.5712   -9.8716 C.2       7 UNK         0.5018 
     48 O          27.8810    2.1014  -10.6929 O.2       7 UNK        -0.5186 
     49 N          27.3288    3.6969   -9.1817 N.am      8 UNK        -0.4240 
     50 CA         28.5028    4.5757   -9.2474 C.3       8 UNK         0.0235 
     51 CB         28.5134    5.3501  -10.5829 C.3       8 UNK        -0.2000 
     52 C          29.8335    3.8483   -8.9640 C.2       8 UNK         0.4941 
     53 O          30.8127    4.0705   -9.6792 O.2       8 UNK        -0.5273 
     54 N          29.8384    2.9978   -7.9244 N.am      9 UNK        -0.4262 
     55 CA         30.9510    2.1458   -7.4835 C.3       9 UNK         0.0264 
     56 CB         32.0809    2.9948   -6.8637 C.3       9 UNK        -0.1955 
     57 C          31.4436    1.1970   -8.5936 C.2       9 UNK         0.5031 
     58 O          32.6273    1.2005   -8.9391 O.2       9 UNK        -0.5390 
     59 N          30.5105    0.4053   -9.1377 N.am      10 UNK        -0.4204 
     60 CA         30.7782   -0.6436  -10.1227 C.3       10 UNK         0.0237 
     61 CB         29.4551   -1.1069  -10.7551 C.3       10 UNK        -0.1985 
     62 C          31.5216   -1.8361   -9.5018 C.2       10 UNK         0.4970 
     63 O          32.4099   -2.3941  -10.1464 O.2       10 UNK        -0.4914 
     64 N          31.1420   -2.1903   -8.2656 N.am      11 UNK        -0.4285 
     65 CA         31.7532   -3.2392   -7.4291 C.3       11 UNK         0.1007 
     66 C          31.6271   -4.6948   -7.9771 C.2       11 UNK         0.5703 
     67 N          30.7798   -4.9626   -8.9636 N.am      11 UNK        -0.7361 
     68 O          32.2729   -5.6088   -7.4706 O.2       11 UNK        -0.4986 
     69 C69        33.2014   -2.8855   -6.9822 C.3       12 UNK        -0.0947 
     70 S70        33.2620   -1.3170   -6.0529 S.3       12 UNK        -0.2240 
     71 C71        33.3362   -1.8999   -4.3207 C.3       12 UNK         0.0194 
     72 H72        31.4806   -5.6885   -3.8021 H         1 UNK         0.0906 
     73 H73        30.2758   -5.5103   -5.0810 H         1 UNK         0.0906 
     74 H74        31.0473   -4.0824   -4.3866 H         1 UNK         0.0906 
     75 H75        29.7809   -2.9881   -2.9237 H         1 UNK         0.3140 
     76 H76        28.0369   -4.4662   -1.0573 H         1 UNK         0.1085 
     77 H77        27.9731   -2.3995    0.2659 H         1 UNK         0.0836 
     78 H78        28.8459   -1.5264   -0.9671 H         1 UNK         0.0836 
     79 H79        32.2685   -1.8064    0.7375 H         1 UNK         0.0731 
     80 H80        30.8440   -0.8264    0.9635 H         1 UNK         0.0731 
     81 H81        32.7078   -2.6151   -1.7960 H         1 UNK         0.1312 
     82 H82        32.0471    0.5730   -4.6031 H         1 UNK         0.1406 
     83 H83        30.4043    0.8163   -0.6675 H         1 UNK         0.1631 
     84 H84        30.6077    2.3552   -4.1142 H         1 UNK         0.0717 
     85 H85        31.0847    2.9593   -2.5484 H         1 UNK         0.0717 
     86 H86        28.5695   -0.0835   -2.8227 H         1 UNK         0.0934 
     87 H87        27.0231    0.6950   -2.8356 H         1 UNK         0.0934 
     88 H88        29.0533    0.7958   -5.1233 H         1 UNK         0.0739 
     89 H89        26.7974   -1.0461   -4.7086 H         1 UNK         0.3093 
     90 H90        26.9454   -2.3840   -7.9016 H         1 UNK         0.0818 
     91 H91        28.2422   -3.8297   -5.5356 H         1 UNK         0.0819 
     92 H92        27.3978   -4.6315   -6.8587 H         1 UNK         0.0819 
     93 H93        28.8601   -3.7226   -7.1777 H         1 UNK         0.0819 
     94 H94        25.7869   -3.2171   -5.3580 H         1 UNK         0.3041 
     95 H95        22.9227   -1.1196   -5.6423 H         1 UNK         0.0784 
     96 H96        22.3750   -2.9327   -7.2752 H         1 UNK         0.0793 
     97 H97        23.0935   -4.1270   -6.2033 H         1 UNK         0.0793 
     98 H98        21.6523   -3.2387   -5.7056 H         1 UNK         0.0793 
     99 H99        23.3636   -3.2337   -3.8638 H         1 UNK         0.3024 
    100 H100       24.3174   -1.3107   -1.2711 H         1 UNK         0.1171 
    101 H101       23.8113   -3.6119   -0.5305 H         1 UNK         0.0786 
    102 H102       22.6799   -3.1382   -1.7779 H         1 UNK         0.0786 
    103 H103       24.0105   -4.2351   -2.1605 H         1 UNK         0.0786 
    104 H104       26.3182   -2.1053   -0.6664 H         1 UNK         0.2977 
    105 H105       25.4766    0.8254   -4.8331 H         1 UNK         0.3127 
    106 H106       24.9842    3.4972   -5.3968 H         1 UNK         0.0770 
    107 H107       23.2028    1.1125   -6.1172 H         1 UNK         0.0814 
    108 H108       22.6752    2.7673   -5.8659 H         1 UNK         0.0814 
    109 H109       23.3075    1.8408   -4.5130 H         1 UNK         0.0814 
    110 H110       25.4739    0.8646   -7.7438 H         1 UNK         0.2983 
    111 H111       24.9796    2.4275  -10.1143 H         1 UNK         0.0947 
    112 H112       25.9256    0.4257  -11.2535 H         1 UNK         0.0806 
    113 H113       24.7590   -0.0514  -10.0333 H         1 UNK         0.0806 
    114 H114       26.4839   -0.2109   -9.7105 H         1 UNK         0.0806 
    115 H115       26.5960    3.9871   -8.5404 H         1 UNK         0.3000 
    116 H116       28.3826    5.3047   -8.4445 H         1 UNK         0.0850 
    117 H117       29.3143    6.0904  -10.6010 H         1 UNK         0.0810 
    118 H118       27.5767    5.8850  -10.7393 H         1 UNK         0.0810 
    119 H119       28.6658    4.6844  -11.4333 H         1 UNK         0.0810 
    120 H120       28.9825    2.9106   -7.3774 H         1 UNK         0.3040 
    121 H121       30.5572    1.5055   -6.6948 H         1 UNK         0.0766 
    122 H122       31.7086    3.6212   -6.0533 H         1 UNK         0.0812 
    123 H123       32.5499    3.6460   -7.6019 H         1 UNK         0.0812 
    124 H124       32.8632    2.3573   -6.4498 H         1 UNK         0.0812 
    125 H125       29.5779    0.4263   -8.7425 H         1 UNK         0.3205 
    126 H126       31.4090   -0.2238  -10.9091 H         1 UNK         0.0754 
    127 H127       29.6268   -1.8981  -11.4862 H         1 UNK         0.0769 
    128 H128       28.9599   -0.2890  -11.2781 H         1 UNK         0.0769 
    129 H129       28.7613   -1.4948  -10.0080 H         1 UNK         0.0769 
    130 H130       30.3854   -1.6676   -7.8337 H         1 UNK         0.2981 
    131 H131       31.1433   -3.2481   -6.5276 H         1 UNK         0.0541 
    132 H132       30.2484   -4.2263   -9.3975 H         1 UNK         0.3459 
    133 H133       30.6988   -5.9097   -9.2978 H         1 UNK         0.3459 
    134 H134       33.6323   -3.6762   -6.3662 H         1 UNK         0.0612 
    135 H135       33.8573   -2.7959   -7.8491 H         1 UNK         0.0612 
    136 H136       33.0447   -2.9486   -4.2776 H         1 UNK         0.0624 
    137 H137       34.3760   -1.8604   -3.9940 H         1 UNK         0.0624 
@<TRIPOS>BOND
     1    1    2 1    
     2    1   72 1    
     3    1   73 1    
     4    1   74 1    
     5    2    3 2    
     6    2    4 am   BACKBONE|DICT|INTERRES
     7    4    5 1    
     8    4   75 1    
     9    5    6 1    
    10    5   35 1    
    11    5   76 1    
    12    6    7 1    
    13    6   77 1    
    14    6   78 1    
    15    7    8 1    
    16    8    9 1    
    17    8   79 1    
    18    8   80 1    
    19    9   10 ar   
    20    9   14 ar   
    21   10   11 ar   
    22   10   81 1    
    23   11   12 ar   
    24   11   71 1    
    25   12   13 ar   
    26   12   82 1    
    27   13   14 ar   
    28   13   15 1    
    29   14   83 1    
    30   15   16 1    
    31   15   84 1    
    32   15   85 1    
    33   16   17 1    
    34   17   18 1    
    35   17   86 1    
    36   17   87 1    
    37   18   19 1    
    38   18   37 1    
    39   18   88 1    
    40   19   20 am   BACKBONE|DICT|INTERRES
    41   19   89 1    
    42   20   21 2    
    43   20   22 1    
    44   22   23 1    
    45   22   24 1    
    46   22   90 1    
    47   23   91 1    
    48   23   92 1    
    49   23   93 1    
    50   24   25 am   BACKBONE|DICT|INTERRES
    51   24   94 1    
    52   25   26 2    
    53   25   27 1    
    54   27   28 1    
    55   27   29 1    
    56   27   95 1    
    57   28   96 1    
    58   28   97 1    
    59   28   98 1    
    60   29   30 am   BACKBONE|DICT|INTERRES
    61   29   99 1    
    62   30   31 2    
    63   30   32 1    
    64   32   33 1    
    65   32   34 1    
    66   32  100 1    
    67   33  101 1    
    68   33  102 1    
    69   33  103 1    
    70   34   35 am   BACKBONE|DICT|INTERRES
    71   34  104 1    
    72   35   36 2    
    73   37   38 2    
    74   37   39 am   BACKBONE|DICT|INTERRES
    75   39   40 1    
    76   39  105 1    
    77   40   41 1    
    78   40   42 1    
    79   40  106 1    
    80   41  107 1    
    81   41  108 1    
    82   41  109 1    
    83   42   43 2    
    84   42   44 am   BACKBONE|DICT|INTERRES
    85   44   45 1    
    86   44  110 1    
    87   45   46 1    
    88   45   47 1    
    89   45  111 1    
    90   46  112 1    
    91   46  113 1    
    92   46  114 1    
    93   47   48 2    
    94   47   49 am   BACKBONE|DICT|INTERRES
    95   49   50 1    
    96   49  115 1    
    97   50   51 1    
    98   50   52 1    
    99   50  116 1    
   100   51  117 1    
   101   51  118 1    
   102   51  119 1    
   103   52   53 2    
   104   52   54 am   BACKBONE|DICT|INTERRES
   105   54   55 1    
   106   54  120 1    
   107   55   56 1    
   108   55   57 1    
   109   55  121 1    
   110   56  122 1    
   111   56  123 1    
   112   56  124 1    
   113   57   58 2    
   114   57   59 am   BACKBONE|DICT|INTERRES
   115   59   60 1    
   116   59  125 1    
   117   60   61 1    
   118   60   62 1    
   119   60  126 1    
   120   61  127 1    
   121   61  128 1    
   122   61  129 1    
   123   62   63 2    
   124   62   64 am   BACKBONE|DICT|INTERRES
   125   64   65 1    
   126   64  130 1    
   127   65   66 1    
   128   65   69 1    
   129   65  131 1    
   130   66   67 am   BACKBONE|DICT|INTERRES
   131   66   68 2    
   132   67  132 1    
   133   67  133 1    
   134   69   70 1    
   135   69  134 1    
   136   69  135 1    
   137   70   71 1    
   138   71  136 1    
   139   71  137 1    
@<TRIPOS>SUBSTRUCTURE
     1 UNK         1 GROUP             0       ****    0 ROOT    
