@<TRIPOS>MOLECULE
3R137
137   139    1
SMALL
USER_CHARGES


@<TRIPOS>ATOM
      1 CA         22.8578   -0.9174   -6.7558 C.3       0 UNK        -0.2020 
      2 C          23.0306   -2.2659   -6.0713 C.2       0 UNK         0.4855 
      3 O          22.1963   -3.1546   -6.2479 O.2       0 UNK        -0.5197 
      4 N          24.1090   -2.4180   -5.2980 N.am      1 UNK        -0.4892 
      5 CA         24.4246   -3.6090   -4.5029 C.3       1 UNK         0.0835 
      6 C6         25.9397   -3.9320   -4.5786 C.3       12 UNK        -0.0855 
      7 S7         26.4244   -4.4932   -6.2444 S.3       12 UNK        -0.2931 
      8 C8         28.1196   -5.0859   -5.9467 C.3       12 UNK         0.0378 
      9 C9         29.0505   -3.9453   -5.5660 C.ar      12 UNK        -0.0802 
     10 C10        29.5445   -3.0864   -6.5527 C.ar      12 UNK        -0.0944 
     11 C11        30.3745   -2.0165   -6.2090 C.ar      12 UNK        -0.0787 
     12 C12        30.7260   -1.8249   -4.8711 C.ar      12 UNK        -0.0862 
     13 C13        30.2370   -2.6735   -3.8739 C.ar      12 UNK        -0.0733 
     14 C14        29.4023   -3.7367   -4.2281 C.ar      12 UNK        -0.0832 
     15 C15        30.5927   -2.4257   -2.4137 C.3       12 UNK         0.0240 
     16 S16        29.3318   -1.4162   -1.5649 S.3       12 UNK        -0.2522 
     17 C17        29.4774    0.1690   -2.4557 C.3       12 UNK        -0.0967 
     18 CA         28.3607    0.3163   -3.5229 C.3       5 UNK         0.0660 
     19 N          27.0633    0.5940   -2.8986 N.am      5 UNK        -0.4015 
     20 C          25.8614    0.3970   -3.4509 C.2       4 UNK         0.4946 
     21 O          25.6944   -0.1122   -4.5640 O.2       4 UNK        -0.5353 
     22 CA         24.6598    0.8621   -2.6157 C.3       4 UNK         0.0277 
     23 CB         23.3576    0.9333   -3.4351 C.3       4 UNK        -0.1981 
     24 N          24.4705   -0.0151   -1.4598 N.am      4 UNK        -0.4209 
     25 C          25.1120    0.1185   -0.2889 C.2       3 UNK         0.4942 
     26 O          25.9495    0.9985   -0.0809 O.2       3 UNK        -0.5208 
     27 CA         24.7705   -0.8651    0.8474 C.3       3 UNK         0.0250 
     28 CB         23.8216   -0.2009    1.8586 C.3       3 UNK        -0.1990 
     29 N          24.1650   -2.1119    0.3750 N.am      3 UNK        -0.4232 
     30 C          24.8533   -3.1443   -0.1289 C.2       2 UNK         0.4993 
     31 O          26.0829   -3.1878   -0.1793 O.2       2 UNK        -0.5286 
     32 CA         24.0460   -4.3194   -0.7176 C.3       2 UNK         0.0209 
     33 CB         22.5459   -4.3223   -0.3388 C.3       2 UNK        -0.1931 
     34 N          24.2210   -4.3825   -2.1754 N.am      2 UNK        -0.4546 
     35 C          23.9586   -3.3953   -3.0466 C.2       1 UNK         0.5154 
     36 O          23.3899   -2.3494   -2.7209 O.2       1 UNK        -0.5181 
     37 C          28.6984    1.3614   -4.6113 C.2       5 UNK         0.5014 
     38 O          29.7113    2.0571   -4.5205 O.2       5 UNK        -0.5248 
     39 N          27.8263    1.4583   -5.6194 N.am      6 UNK        -0.4434 
     40 CA         27.9317    2.3584   -6.7671 C.3       6 UNK         0.0363 
     41 CB         27.3398    3.7351   -6.4061 C.3       6 UNK        -0.1936 
     42 C          27.2729    1.7403   -8.0128 C.2       6 UNK         0.5081 
     43 O          26.8705    2.4717   -8.9179 O.2       6 UNK        -0.5248 
     44 N          27.1638    0.4036   -8.0456 N.am      7 UNK        -0.4718 
     45 CA         26.5579   -0.3610   -9.1421 C.3       7 UNK         0.0273 
     46 CB         26.2233   -1.7699   -8.6294 C.3       7 UNK        -0.1935 
     47 C          27.4391   -0.4490  -10.4037 C.2       7 UNK         0.5018 
     48 O          26.9445   -0.8546  -11.4563 O.2       7 UNK        -0.5186 
     49 N          28.7188   -0.0863  -10.2777 N.am      8 UNK        -0.4240 
     50 CA         29.7325   -0.0823  -11.3232 C.3       8 UNK         0.0235 
     51 CB         30.3094   -1.5003  -11.4987 C.3       8 UNK        -0.2000 
     52 C          30.8177    0.9307  -10.9352 C.2       8 UNK         0.4941 
     53 O          30.8283    1.4191   -9.8001 O.2       8 UNK        -0.5273 
     54 N          31.7017    1.2346  -11.8922 N.am      9 UNK        -0.4262 
     55 CA         32.8388    2.1405  -11.7235 C.3       9 UNK         0.0264 
     56 CB         33.4089    2.4806  -13.1113 C.3       9 UNK        -0.1955 
     57 C          33.9374    1.5450  -10.8248 C.2       9 UNK         0.5031 
     58 O          34.0340    0.3231  -10.6887 O.2       9 UNK        -0.5390 
     59 N          34.7643    2.4326  -10.2564 N.am      10 UNK        -0.4204 
     60 CA         35.9356    2.1876   -9.4008 C.3       10 UNK         0.0237 
     61 CB         36.9969    1.3221  -10.1096 C.3       10 UNK        -0.1985 
     62 C          35.6133    1.6393   -7.9992 C.2       10 UNK         0.4970 
     63 O          36.1885    2.1337   -7.0286 O.2       10 UNK        -0.4914 
     64 N          34.7147    0.6523   -7.9009 N.am      11 UNK        -0.4285 
     65 CA         34.2521    0.0774   -6.6271 C.3       11 UNK         0.1007 
     66 C          33.3380    1.0068   -5.7779 C.2       11 UNK         0.5703 
     67 N          32.7139    2.0301   -6.3492 N.am      11 UNK        -0.7361 
     68 O          33.2049    0.7976   -4.5750 O.2       11 UNK        -0.4986 
     69 C69        33.6558   -1.3481   -6.7929 C.3       12 UNK        -0.0947 
     70 S70        32.3845   -1.5256   -8.0937 S.3       12 UNK        -0.2240 
     71 C71        30.8369   -1.0312   -7.2712 C.3       12 UNK         0.0194 
     72 H72        22.8049   -1.0484   -7.8362 H         1 UNK         0.0906 
     73 H73        21.9356   -0.4425   -6.4222 H         1 UNK         0.0906 
     74 H74        23.6852   -0.2416   -6.5379 H         1 UNK         0.0906 
     75 H75        24.7153   -1.6178   -5.1265 H         1 UNK         0.3140 
     76 H76        23.8683   -4.4686   -4.8834 H         1 UNK         0.1085 
     77 H77        26.5322   -3.0549   -4.3085 H         1 UNK         0.0836 
     78 H78        26.2201   -4.7203   -3.8786 H         1 UNK         0.0836 
     79 H79        28.4889   -5.5699   -6.8520 H         1 UNK         0.0731 
     80 H80        28.1083   -5.8551   -5.1728 H         1 UNK         0.0731 
     81 H81        29.2644   -3.2394   -7.5859 H         1 UNK         0.1312 
     82 H82        31.3610   -0.9943   -4.6019 H         1 UNK         0.1406 
     83 H83        29.0128   -4.3897   -3.4588 H         1 UNK         0.1631 
     84 H84        31.5653   -1.9371   -2.3347 H         1 UNK         0.0717 
     85 H85        30.6895   -3.3788   -1.8917 H         1 UNK         0.0717 
     86 H86        29.4315    0.9870   -1.7347 H         1 UNK         0.0934 
     87 H87        30.4743    0.2296   -2.8943 H         1 UNK         0.0934 
     88 H88        28.2714   -0.6350   -4.0514 H         1 UNK         0.0739 
     89 H89        27.0895    0.9795   -1.9620 H         1 UNK         0.3093 
     90 H90        24.8743    1.8758   -2.2695 H         1 UNK         0.0818 
     91 H91        23.4746    1.5941   -4.2949 H         1 UNK         0.0819 
     92 H92        23.0571   -0.0417   -3.8158 H         1 UNK         0.0819 
     93 H93        22.5350    1.3237   -2.8361 H         1 UNK         0.0819 
     94 H94        23.8834   -0.8298   -1.6189 H         1 UNK         0.3041 
     95 H95        25.7036   -1.1009    1.3642 H         1 UNK         0.0784 
     96 H96        24.2559    0.7175    2.2564 H         1 UNK         0.0793 
     97 H97        22.8651    0.0614    1.4045 H         1 UNK         0.0793 
     98 H98        23.6232   -0.8566    2.7067 H         1 UNK         0.0793 
     99 H99        23.1560   -2.1528    0.3551 H         1 UNK         0.3024 
    100 H100       24.4911   -5.2264   -0.3045 H         1 UNK         0.1171 
    101 H101       22.0550   -5.2215   -0.7111 H         1 UNK         0.0786 
    102 H102       22.4137   -4.3153    0.7441 H         1 UNK         0.0786 
    103 H103       22.0062   -3.4667   -0.7456 H         1 UNK         0.0786 
    104 H104       24.6908   -5.2098   -2.5163 H         1 UNK         0.2977 
    105 H105       26.9857    0.8854   -5.5651 H         1 UNK         0.3127 
    106 H106       28.9867    2.4896   -7.0180 H         1 UNK         0.0770 
    107 H107       26.2772    3.6642   -6.1713 H         1 UNK         0.0814 
    108 H108       27.4479    4.4399   -7.2314 H         1 UNK         0.0814 
    109 H109       27.8456    4.1717   -5.5448 H         1 UNK         0.0814 
    110 H110       27.5333   -0.1328   -7.2743 H         1 UNK         0.2983 
    111 H111       25.6258    0.1304   -9.4300 H         1 UNK         0.0947 
    112 H112       25.6876   -2.3461   -9.3850 H         1 UNK         0.0806 
    113 H113       25.5910   -1.7338   -7.7433 H         1 UNK         0.0806 
    114 H114       27.1232   -2.3291   -8.3729 H         1 UNK         0.0806 
    115 H115       29.0324    0.3222   -9.4065 H         1 UNK         0.3000 
    116 H116       29.2783    0.2496  -12.2594 H         1 UNK         0.0850 
    117 H117       31.0826   -1.5237  -12.2672 H         1 UNK         0.0810 
    118 H118       29.5371   -2.2086  -11.7989 H         1 UNK         0.0810 
    119 H119       30.7569   -1.8686  -10.5757 H         1 UNK         0.0810 
    120 H120       31.6380    0.7573  -12.7794 H         1 UNK         0.3040 
    121 H121       32.4722    3.0589  -11.2594 H         1 UNK         0.0766 
    122 H122       33.7887    1.5931  -13.6195 H         1 UNK         0.0812 
    123 H123       34.2347    3.1894  -13.0368 H         1 UNK         0.0812 
    124 H124       32.6529    2.9364  -13.7511 H         1 UNK         0.0812 
    125 H125       34.5722    3.4110  -10.4254 H         1 UNK         0.3205 
    126 H126       36.3822    3.1713   -9.2456 H         1 UNK         0.0754 
    127 H127       37.9048    1.2529   -9.5088 H         1 UNK         0.0769 
    128 H128       37.2777    1.7486  -11.0726 H         1 UNK         0.0769 
    129 H129       36.6482    0.3036  -10.2827 H         1 UNK         0.0769 
    130 H130       34.2873    0.2960   -8.7516 H         1 UNK         0.2981 
    131 H131       35.1463   -0.0525   -6.0139 H         1 UNK         0.0541 
    132 H132       32.7967    2.1953   -7.3389 H         1 UNK         0.3459 
    133 H133       32.1080    2.6055   -5.7846 H         1 UNK         0.3459 
    134 H134       33.2811   -1.7357   -5.8458 H         1 UNK         0.0612 
    135 H135       34.4647   -2.0264   -7.0675 H         1 UNK         0.0612 
    136 H136       30.9329   -0.0317   -6.8496 H         1 UNK         0.0624 
    137 H137       30.0660   -0.9493   -8.0361 H         1 UNK         0.0624 
@<TRIPOS>BOND
     1    1    2 1    
     2    1   72 1    
     3    1   73 1    
     4    1   74 1    
     5    2    3 2    
     6    2    4 am   BACKBONE|DICT|INTERRES
     7    4    5 1    
     8    4   75 1    
     9    5    6 1    
    10    5   35 1    
    11    5   76 1    
    12    6    7 1    
    13    6   77 1    
    14    6   78 1    
    15    7    8 1    
    16    8    9 1    
    17    8   79 1    
    18    8   80 1    
    19    9   10 ar   
    20    9   14 ar   
    21   10   11 ar   
    22   10   81 1    
    23   11   12 ar   
    24   11   71 1    
    25   12   13 ar   
    26   12   82 1    
    27   13   14 ar   
    28   13   15 1    
    29   14   83 1    
    30   15   16 1    
    31   15   84 1    
    32   15   85 1    
    33   16   17 1    
    34   17   18 1    
    35   17   86 1    
    36   17   87 1    
    37   18   19 1    
    38   18   37 1    
    39   18   88 1    
    40   19   20 am   BACKBONE|DICT|INTERRES
    41   19   89 1    
    42   20   21 2    
    43   20   22 1    
    44   22   23 1    
    45   22   24 1    
    46   22   90 1    
    47   23   91 1    
    48   23   92 1    
    49   23   93 1    
    50   24   25 am   BACKBONE|DICT|INTERRES
    51   24   94 1    
    52   25   26 2    
    53   25   27 1    
    54   27   28 1    
    55   27   29 1    
    56   27   95 1    
    57   28   96 1    
    58   28   97 1    
    59   28   98 1    
    60   29   30 am   BACKBONE|DICT|INTERRES
    61   29   99 1    
    62   30   31 2    
    63   30   32 1    
    64   32   33 1    
    65   32   34 1    
    66   32  100 1    
    67   33  101 1    
    68   33  102 1    
    69   33  103 1    
    70   34   35 am   BACKBONE|DICT|INTERRES
    71   34  104 1    
    72   35   36 2    
    73   37   38 2    
    74   37   39 am   BACKBONE|DICT|INTERRES
    75   39   40 1    
    76   39  105 1    
    77   40   41 1    
    78   40   42 1    
    79   40  106 1    
    80   41  107 1    
    81   41  108 1    
    82   41  109 1    
    83   42   43 2    
    84   42   44 am   BACKBONE|DICT|INTERRES
    85   44   45 1    
    86   44  110 1    
    87   45   46 1    
    88   45   47 1    
    89   45  111 1    
    90   46  112 1    
    91   46  113 1    
    92   46  114 1    
    93   47   48 2    
    94   47   49 am   BACKBONE|DICT|INTERRES
    95   49   50 1    
    96   49  115 1    
    97   50   51 1    
    98   50   52 1    
    99   50  116 1    
   100   51  117 1    
   101   51  118 1    
   102   51  119 1    
   103   52   53 2    
   104   52   54 am   BACKBONE|DICT|INTERRES
   105   54   55 1    
   106   54  120 1    
   107   55   56 1    
   108   55   57 1    
   109   55  121 1    
   110   56  122 1    
   111   56  123 1    
   112   56  124 1    
   113   57   58 2    
   114   57   59 am   BACKBONE|DICT|INTERRES
   115   59   60 1    
   116   59  125 1    
   117   60   61 1    
   118   60   62 1    
   119   60  126 1    
   120   61  127 1    
   121   61  128 1    
   122   61  129 1    
   123   62   63 2    
   124   62   64 am   BACKBONE|DICT|INTERRES
   125   64   65 1    
   126   64  130 1    
   127   65   66 1    
   128   65   69 1    
   129   65  131 1    
   130   66   67 am   BACKBONE|DICT|INTERRES
   131   66   68 2    
   132   67  132 1    
   133   67  133 1    
   134   69   70 1    
   135   69  134 1    
   136   69  135 1    
   137   70   71 1    
   138   71  136 1    
   139   71  137 1    
@<TRIPOS>SUBSTRUCTURE
     1 UNK         1 GROUP             0       ****    0 ROOT    
