@<TRIPOS>MOLECULE
3R137
137   139    1
SMALL
USER_CHARGES


@<TRIPOS>ATOM
      1 CA         22.3781   -4.2521   -3.0535 C.3       0 UNK        -0.2020 
      2 C          23.3353   -5.1372   -2.2694 C.2       0 UNK         0.4855 
      3 O          22.9357   -5.7549   -1.2832 O.2       0 UNK        -0.5197 
      4 N          24.6062   -5.1848   -2.6854 N.am      1 UNK        -0.4892 
      5 CA         25.6941   -5.9505   -2.0548 C.3       1 UNK         0.0835 
      6 C6         26.7371   -6.4016   -3.1129 C.3       12 UNK        -0.0855 
      7 S7         27.4403   -5.0224   -4.0871 S.3       12 UNK        -0.2931 
      8 C8         29.1277   -4.9440   -3.4136 C.3       12 UNK         0.0378 
      9 C9         29.8327   -3.6804   -3.8754 C.ar      12 UNK        -0.0802 
     10 C10        30.5817   -3.6795   -5.0547 C.ar      12 UNK        -0.0944 
     11 C11        31.2196   -2.5139   -5.4896 C.ar      12 UNK        -0.0787 
     12 C12        31.1051   -1.3424   -4.7334 C.ar      12 UNK        -0.0862 
     13 C13        30.3678   -1.3369   -3.5440 C.ar      12 UNK        -0.0733 
     14 C14        29.7323   -2.5080   -3.1223 C.ar      12 UNK        -0.0832 
     15 C15        30.2662   -0.0788   -2.6948 C.3       12 UNK         0.0240 
     16 S16        28.6648    0.7595   -2.9110 S.3       12 UNK        -0.2522 
     17 C17        28.8852    1.5631   -4.5348 C.3       12 UNK        -0.0967 
     18 CA         27.9129    1.0307   -5.6156 C.3       5 UNK         0.0660 
     19 N          26.5145    1.1229   -5.1753 N.am      5 UNK        -0.4015 
     20 C          25.4255    0.7472   -5.8620 C.2       4 UNK         0.4946 
     21 O          25.4563    0.3537   -7.0290 O.2       4 UNK        -0.5353 
     22 CA         24.0746    0.8726   -5.1278 C.3       4 UNK         0.0277 
     23 CB         22.9862   -0.0471   -5.7240 C.3       4 UNK        -0.1981 
     24 N          24.1788    0.6993   -3.6697 N.am      4 UNK        -0.4209 
     25 C          24.5485   -0.4109   -3.0137 C.2       3 UNK         0.4942 
     26 O          24.8448   -1.4796   -3.5572 O.2       3 UNK        -0.5208 
     27 CA         24.5780   -0.3112   -1.4828 C.3       3 UNK         0.0250 
     28 CB         23.1480   -0.2205   -0.9105 C.3       3 UNK        -0.1990 
     29 N          25.2490   -1.5037   -0.9805 N.am      3 UNK        -0.4232 
     30 C          25.6840   -1.7336    0.2647 C.2       2 UNK         0.4993 
     31 O          25.6285   -0.9000    1.1699 O.2       2 UNK        -0.5286 
     32 CA         26.2421   -3.1408    0.5519 C.3       2 UNK         0.0209 
     33 CB         25.9090   -3.6305    1.9754 C.3       2 UNK        -0.1931 
     34 N          25.7360   -4.0945   -0.4365 N.am      2 UNK        -0.4546 
     35 C          26.3467   -5.2038   -0.8639 C.2       1 UNK         0.5154 
     36 O          27.3928   -5.6287   -0.3709 O.2       1 UNK        -0.5181 
     37 C          28.1884    1.7391   -6.9585 C.2       5 UNK         0.5014 
     38 O          29.0391    1.2811   -7.7228 O.2       5 UNK        -0.5248 
     39 N          27.4581    2.8289   -7.2387 N.am      6 UNK        -0.4434 
     40 CA         27.5344    3.6057   -8.4797 C.3       6 UNK         0.0363 
     41 CB         26.6120    4.8296   -8.3707 C.3       6 UNK        -0.1936 
     42 C          27.2047    2.7975   -9.7484 C.2       6 UNK         0.5081 
     43 O          27.7522    3.1033  -10.8077 O.2       6 UNK        -0.5248 
     44 N          26.3702    1.7531   -9.6234 N.am      7 UNK        -0.4718 
     45 CA         26.0528    0.8182  -10.7098 C.3       7 UNK         0.0273 
     46 CB         24.8396   -0.0371  -10.3109 C.3       7 UNK        -0.1935 
     47 C          27.2410   -0.0804  -11.1039 C.2       7 UNK         0.5018 
     48 O          27.2489   -0.6116  -12.2146 O.2       7 UNK        -0.5186 
     49 N          28.2249   -0.2125  -10.2049 N.am      8 UNK        -0.4240 
     50 CA         29.4895   -0.9150  -10.4110 C.3       8 UNK         0.0235 
     51 CB         29.6213   -2.0080   -9.3371 C.3       8 UNK        -0.2000 
     52 C          30.6704    0.0752  -10.3909 C.2       8 UNK         0.4941 
     53 O          31.7755   -0.3008   -9.9949 O.2       8 UNK        -0.5273 
     54 N          30.4154    1.3327  -10.7937 N.am      9 UNK        -0.4262 
     55 CA         31.3688    2.4448  -10.9204 C.3       9 UNK         0.0264 
     56 CB         32.3121    2.1996  -12.1170 C.3       9 UNK        -0.1955 
     57 C          32.1379    2.7663   -9.6223 C.2       9 UNK         0.5031 
     58 O          33.3086    3.1500   -9.6814 O.2       9 UNK        -0.5390 
     59 N          31.4833    2.5587   -8.4691 N.am      10 UNK        -0.4204 
     60 CA         32.0209    2.6855   -7.1091 C.3       10 UNK         0.0237 
     61 CB         32.3619    4.1553   -6.7850 C.3       10 UNK        -0.1985 
     62 C          33.1869    1.7212   -6.8066 C.2       10 UNK         0.4970 
     63 O          33.9357    1.9642   -5.8593 O.2       10 UNK        -0.4914 
     64 N          33.3219    0.6509   -7.6051 N.am      11 UNK        -0.4285 
     65 CA         34.4314   -0.3142   -7.5801 C.3       11 UNK         0.1007 
     66 C          35.8145    0.2919   -7.9777 C.2       11 UNK         0.5703 
     67 N          35.8645    1.4474   -8.6336 N.am      11 UNK        -0.7361 
     68 O          36.8586   -0.3074   -7.7305 O.2       11 UNK        -0.4986 
     69 C69        34.4415   -1.1788   -6.2753 C.3       12 UNK        -0.0947 
     70 S70        33.7745   -2.8538   -6.5483 S.3       12 UNK        -0.2240 
     71 C71        32.0011   -2.5255   -6.7942 C.3       12 UNK         0.0194 
     72 H72        22.8883   -3.6982   -3.8420 H         1 UNK         0.0906 
     73 H73        21.5972   -4.8576   -3.5128 H         1 UNK         0.0906 
     74 H74        21.9039   -3.5301   -2.3892 H         1 UNK         0.0906 
     75 H75        24.8891   -4.6443   -3.4933 H         1 UNK         0.3140 
     76 H76        25.2649   -6.8581   -1.6240 H         1 UNK         0.1085 
     77 H77        26.2573   -7.0844   -3.8159 H         1 UNK         0.0836 
     78 H78        27.5369   -6.9853   -2.6528 H         1 UNK         0.0836 
     79 H79        29.6856   -5.8279   -3.7268 H         1 UNK         0.0731 
     80 H80        29.0966   -4.9693   -2.3239 H         1 UNK         0.0731 
     81 H81        30.6586   -4.5856   -5.6403 H         1 UNK         0.1312 
     82 H82        31.5924   -0.4382   -5.0694 H         1 UNK         0.1406 
     83 H83        29.1524   -2.5041   -2.2091 H         1 UNK         0.1631 
     84 H84        31.0814    0.6115   -2.9179 H         1 UNK         0.0717 
     85 H85        30.3793   -0.3456   -1.6430 H         1 UNK         0.0717 
     86 H86        28.7554    2.6383   -4.3939 H         1 UNK         0.0934 
     87 H87        29.9174    1.4261   -4.8561 H         1 UNK         0.0934 
     88 H88        28.1231   -0.0300   -5.7701 H         1 UNK         0.0739 
     89 H89        26.3867    1.4206   -4.2195 H         1 UNK         0.3093 
     90 H90        23.7490    1.9018   -5.2861 H         1 UNK         0.0818 
     91 H91        22.8024    0.1931   -6.7720 H         1 UNK         0.0819 
     92 H92        23.2743   -1.0979   -5.6807 H         1 UNK         0.0819 
     93 H93        22.0389    0.0638   -5.1967 H         1 UNK         0.0819 
     94 H94        23.9466    1.5165   -3.1209 H         1 UNK         0.3041 
     95 H95        25.1571    0.5693   -1.1969 H         1 UNK         0.0784 
     96 H96        22.6242    0.6594   -1.2856 H         1 UNK         0.0793 
     97 H97        22.5524   -1.0940   -1.1793 H         1 UNK         0.0793 
     98 H98        23.1548   -0.1445    0.1768 H         1 UNK         0.0793 
     99 H99        25.4170   -2.1873   -1.7098 H         1 UNK         0.3024 
    100 H100       27.3276   -3.0697    0.4514 H         1 UNK         0.1171 
    101 H101       24.8320   -3.6948    2.1343 H         1 UNK         0.0786 
    102 H102       26.3357   -4.6149    2.1679 H         1 UNK         0.0786 
    103 H103       26.3127   -2.9539    2.7298 H         1 UNK         0.0786 
    104 H104       24.8498   -3.8623   -0.8627 H         1 UNK         0.2977 
    105 H105       26.7791    3.1338   -6.5568 H         1 UNK         0.3127 
    106 H106       28.5623    3.9608   -8.5805 H         1 UNK         0.0770 
    107 H107       25.5689    4.5392   -8.2391 H         1 UNK         0.0814 
    108 H108       26.6681    5.4414   -9.2724 H         1 UNK         0.0814 
    109 H109       26.8936    5.4672   -7.5325 H         1 UNK         0.0814 
    110 H110       25.9966    1.5231   -8.7076 H         1 UNK         0.2983 
    111 H111       25.7823    1.4040  -11.5912 H         1 UNK         0.0947 
    112 H112       24.5311   -0.6831  -11.1340 H         1 UNK         0.0806 
    113 H113       23.9831    0.5835  -10.0471 H         1 UNK         0.0806 
    114 H114       25.0625   -0.6813   -9.4595 H         1 UNK         0.0806 
    115 H115       28.1480    0.2895   -9.3265 H         1 UNK         0.3000 
    116 H116       29.5050   -1.3970  -11.3905 H         1 UNK         0.0850 
    117 H117       29.6443   -1.5810   -8.3338 H         1 UNK         0.0810 
    118 H118       30.5342   -2.5871   -9.4789 H         1 UNK         0.0810 
    119 H119       28.7871   -2.7082   -9.3816 H         1 UNK         0.0810 
    120 H120       29.4625    1.5573  -11.0533 H         1 UNK         0.3040 
    121 H121       30.7733    3.3316  -11.1430 H         1 UNK         0.0766 
    122 H122       32.9745    1.3514  -11.9397 H         1 UNK         0.0812 
    123 H123       31.7517    2.0025  -13.0308 H         1 UNK         0.0812 
    124 H124       32.9414    3.0700  -12.3073 H         1 UNK         0.0812 
    125 H125       30.5464    2.1636   -8.5126 H         1 UNK         0.3205 
    126 H126       31.2144    2.3882   -6.4424 H         1 UNK         0.0754 
    127 H127       32.6113    4.2773   -5.7302 H         1 UNK         0.0769 
    128 H128       31.5179    4.8128   -6.9937 H         1 UNK         0.0769 
    129 H129       33.2157    4.5106   -7.3627 H         1 UNK         0.0769 
    130 H130       32.6750    0.5280   -8.3779 H         1 UNK         0.2981 
    131 H131       34.2217   -0.9753   -8.4216 H         1 UNK         0.0541 
    132 H132       35.0166    1.9455   -8.8737 H         1 UNK         0.3459 
    133 H133       36.7606    1.8234   -8.8995 H         1 UNK         0.3459 
    134 H134       33.8870   -0.7076   -5.4645 H         1 UNK         0.0612 
    135 H135       35.4493   -1.3089   -5.8791 H         1 UNK         0.0612 
    136 H136       31.8567   -1.5878   -7.3291 H         1 UNK         0.0624 
    137 H137       31.6064   -3.3046   -7.4472 H         1 UNK         0.0624 
@<TRIPOS>BOND
     1    1    2 1    
     2    1   72 1    
     3    1   73 1    
     4    1   74 1    
     5    2    3 2    
     6    2    4 am   BACKBONE|DICT|INTERRES
     7    4    5 1    
     8    4   75 1    
     9    5    6 1    
    10    5   35 1    
    11    5   76 1    
    12    6    7 1    
    13    6   77 1    
    14    6   78 1    
    15    7    8 1    
    16    8    9 1    
    17    8   79 1    
    18    8   80 1    
    19    9   10 ar   
    20    9   14 ar   
    21   10   11 ar   
    22   10   81 1    
    23   11   12 ar   
    24   11   71 1    
    25   12   13 ar   
    26   12   82 1    
    27   13   14 ar   
    28   13   15 1    
    29   14   83 1    
    30   15   16 1    
    31   15   84 1    
    32   15   85 1    
    33   16   17 1    
    34   17   18 1    
    35   17   86 1    
    36   17   87 1    
    37   18   19 1    
    38   18   37 1    
    39   18   88 1    
    40   19   20 am   BACKBONE|DICT|INTERRES
    41   19   89 1    
    42   20   21 2    
    43   20   22 1    
    44   22   23 1    
    45   22   24 1    
    46   22   90 1    
    47   23   91 1    
    48   23   92 1    
    49   23   93 1    
    50   24   25 am   BACKBONE|DICT|INTERRES
    51   24   94 1    
    52   25   26 2    
    53   25   27 1    
    54   27   28 1    
    55   27   29 1    
    56   27   95 1    
    57   28   96 1    
    58   28   97 1    
    59   28   98 1    
    60   29   30 am   BACKBONE|DICT|INTERRES
    61   29   99 1    
    62   30   31 2    
    63   30   32 1    
    64   32   33 1    
    65   32   34 1    
    66   32  100 1    
    67   33  101 1    
    68   33  102 1    
    69   33  103 1    
    70   34   35 am   BACKBONE|DICT|INTERRES
    71   34  104 1    
    72   35   36 2    
    73   37   38 2    
    74   37   39 am   BACKBONE|DICT|INTERRES
    75   39   40 1    
    76   39  105 1    
    77   40   41 1    
    78   40   42 1    
    79   40  106 1    
    80   41  107 1    
    81   41  108 1    
    82   41  109 1    
    83   42   43 2    
    84   42   44 am   BACKBONE|DICT|INTERRES
    85   44   45 1    
    86   44  110 1    
    87   45   46 1    
    88   45   47 1    
    89   45  111 1    
    90   46  112 1    
    91   46  113 1    
    92   46  114 1    
    93   47   48 2    
    94   47   49 am   BACKBONE|DICT|INTERRES
    95   49   50 1    
    96   49  115 1    
    97   50   51 1    
    98   50   52 1    
    99   50  116 1    
   100   51  117 1    
   101   51  118 1    
   102   51  119 1    
   103   52   53 2    
   104   52   54 am   BACKBONE|DICT|INTERRES
   105   54   55 1    
   106   54  120 1    
   107   55   56 1    
   108   55   57 1    
   109   55  121 1    
   110   56  122 1    
   111   56  123 1    
   112   56  124 1    
   113   57   58 2    
   114   57   59 am   BACKBONE|DICT|INTERRES
   115   59   60 1    
   116   59  125 1    
   117   60   61 1    
   118   60   62 1    
   119   60  126 1    
   120   61  127 1    
   121   61  128 1    
   122   61  129 1    
   123   62   63 2    
   124   62   64 am   BACKBONE|DICT|INTERRES
   125   64   65 1    
   126   64  130 1    
   127   65   66 1    
   128   65   69 1    
   129   65  131 1    
   130   66   67 am   BACKBONE|DICT|INTERRES
   131   66   68 2    
   132   67  132 1    
   133   67  133 1    
   134   69   70 1    
   135   69  134 1    
   136   69  135 1    
   137   70   71 1    
   138   71  136 1    
   139   71  137 1    
@<TRIPOS>SUBSTRUCTURE
     1 UNK         1 GROUP             0       ****    0 ROOT    
