@<TRIPOS>MOLECULE
3R137
137   139    1
SMALL
USER_CHARGES


@<TRIPOS>ATOM
      1 CA         22.7541   -4.1897   -1.9361 C.3       0 UNK        -0.2020 
      2 C          24.1331   -3.6948   -1.5284 C.2       0 UNK         0.4855 
      3 O          24.2547   -2.6076   -0.9627 O.2       0 UNK        -0.5197 
      4 N          25.1745   -4.4901   -1.8062 N.am      1 UNK        -0.4892 
      5 CA         26.5679   -4.1776   -1.4724 C.3       1 UNK         0.0835 
      6 C6         27.4748   -5.4279   -1.5813 C.3       12 UNK        -0.0855 
      7 S7         28.9780   -5.2811   -0.5504 S.3       12 UNK        -0.2931 
      8 C8         30.2724   -5.9776   -1.6263 C.3       12 UNK         0.0378 
      9 C9         30.6413   -5.0516   -2.7776 C.ar      12 UNK        -0.0802 
     10 C10        31.5678   -4.0190   -2.5908 C.ar      12 UNK        -0.0944 
     11 C11        31.9406   -3.1987   -3.6618 C.ar      12 UNK        -0.0787 
     12 C12        31.3676   -3.4058   -4.9200 C.ar      12 UNK        -0.0862 
     13 C13        30.4296   -4.4224   -5.1120 C.ar      12 UNK        -0.0733 
     14 C14        30.0820   -5.2508   -4.0429 C.ar      12 UNK        -0.0832 
     15 C15        29.7787   -4.6235   -6.4699 C.3       12 UNK         0.0240 
     16 S16        28.1244   -3.8713   -6.5106 S.3       12 UNK        -0.2522 
     17 C17        28.5536   -2.0996   -6.5091 C.3       12 UNK        -0.0967 
     18 CA         27.3568   -1.2406   -6.9672 C.3       5 UNK         0.0660 
     19 N          26.2595   -1.2501   -5.9932 N.am      5 UNK        -0.4015 
     20 C          25.0339   -0.7588   -6.2281 C.2       4 UNK         0.4946 
     21 O          24.7044   -0.2072   -7.2789 O.2       4 UNK        -0.5353 
     22 CA         24.0116   -0.8818   -5.0914 C.3       4 UNK         0.0277 
     23 CB         23.4851   -2.3208   -4.9778 C.3       4 UNK        -0.1981 
     24 N          24.5866   -0.4477   -3.8179 N.am      4 UNK        -0.4209 
     25 C          24.7092    0.8388   -3.4595 C.2       3 UNK         0.4942 
     26 O          24.2516    1.7779   -4.1112 O.2       3 UNK        -0.5208 
     27 CA         25.4877    1.1416   -2.1673 C.3       3 UNK         0.0250 
     28 CB         24.5374    1.1773   -0.9599 C.3       3 UNK        -0.1990 
     29 N          26.5768    0.1988   -1.9023 N.am      3 UNK        -0.4232 
     30 C          27.6600    0.0415   -2.6777 C.2       2 UNK         0.4993 
     31 O          27.8624    0.6763   -3.7103 O.2       2 UNK        -0.5286 
     32 CA         28.6641   -1.0419   -2.2544 C.3       2 UNK         0.0209 
     33 CB         29.6557   -0.4754   -1.2259 C.3       2 UNK        -0.1931 
     34 N          28.0345   -2.2402   -1.6973 N.am      2 UNK        -0.4546 
     35 C          27.1023   -2.9893   -2.3005 C.2       1 UNK         0.5154 
     36 O          26.6555   -2.7573   -3.4292 O.2       1 UNK        -0.5181 
     37 C          27.8019    0.1764   -7.3805 C.2       5 UNK         0.5014 
     38 O          28.2154    0.3486   -8.5251 O.2       5 UNK        -0.5248 
     39 N          27.6504    1.1760   -6.4980 N.am      6 UNK        -0.4434 
     40 CA         27.8903    2.6018   -6.7607 C.3       6 UNK         0.0363 
     41 CB         27.5528    3.4131   -5.4994 C.3       6 UNK        -0.1936 
     42 C          27.1472    3.1862   -7.9801 C.2       6 UNK         0.5081 
     43 O          27.6005    4.1914   -8.5276 O.2       6 UNK        -0.5248 
     44 N          26.0411    2.5550   -8.3991 N.am      7 UNK        -0.4718 
     45 CA         25.2973    2.9041   -9.6114 C.3       7 UNK         0.0273 
     46 CB         23.8736    2.3342   -9.4984 C.3       7 UNK        -0.1935 
     47 C          25.9678    2.4224  -10.9155 C.2       7 UNK         0.5018 
     48 O          25.5388    2.8510  -11.9883 O.2       7 UNK        -0.5186 
     49 N          26.9725    1.5402  -10.8247 N.am      8 UNK        -0.4240 
     50 CA         27.6685    0.9381  -11.9589 C.3       8 UNK         0.0235 
     51 CB         26.9790   -0.3898  -12.3400 C.3       8 UNK        -0.2000 
     52 C          29.1590    0.8042  -11.6140 C.2       8 UNK         0.4941 
     53 O          29.8667    1.8139  -11.6066 O.2       8 UNK        -0.5273 
     54 N          29.6195   -0.4237  -11.3373 N.am      9 UNK        -0.4262 
     55 CA         30.9923   -0.7645  -10.9533 C.3       9 UNK         0.0264 
     56 CB         31.2059   -2.2744  -11.1724 C.3       9 UNK        -0.1955 
     57 C          31.3096   -0.3305   -9.5080 C.2       9 UNK         0.5031 
     58 O          31.4518   -1.1790   -8.6245 O.2       9 UNK        -0.5390 
     59 N          31.3825    0.9899   -9.2997 N.am      10 UNK        -0.4204 
     60 CA         31.6262    1.6507   -8.0171 C.3       10 UNK         0.0237 
     61 CB         31.5340    3.1724   -8.2184 C.3       10 UNK        -0.1985 
     62 C          32.9731    1.2712   -7.3782 C.2       10 UNK         0.4970 
     63 O          33.9396    0.9819   -8.0879 O.2       10 UNK        -0.4914 
     64 N          33.0024    1.3069   -6.0420 N.am      11 UNK        -0.4285 
     65 CA         34.1343    0.8798   -5.2033 C.3       11 UNK         0.1007 
     66 C          35.3811    1.8113   -5.2401 C.2       11 UNK         0.5703 
     67 N          35.2993    3.0150   -5.7949 N.am      11 UNK        -0.7361 
     68 O          36.4454    1.4299   -4.7586 O.2       11 UNK        -0.4986 
     69 C69        33.6898    0.6105   -3.7392 C.3       12 UNK        -0.0947 
     70 S70        32.2144   -0.4558   -3.6226 S.3       12 UNK        -0.2240 
     71 C71        32.9749   -2.0986   -3.4796 C.3       12 UNK         0.0194 
     72 H72        22.0860   -3.3493   -2.1220 H         1 UNK         0.0906 
     73 H73        22.7988   -4.7935   -2.8424 H         1 UNK         0.0906 
     74 H74        22.3219   -4.7936   -1.1388 H         1 UNK         0.0906 
     75 H75        25.0217   -5.3539   -2.3068 H         1 UNK         0.3140 
     76 H76        26.5562   -3.8644   -0.4253 H         1 UNK         0.1085 
     77 H77        27.7235   -5.6388   -2.6212 H         1 UNK         0.0836 
     78 H78        26.9401   -6.3090   -1.2224 H         1 UNK         0.0836 
     79 H79        31.1599   -6.1711   -1.0217 H         1 UNK         0.0731 
     80 H80        29.9480   -6.9497   -2.0014 H         1 UNK         0.0731 
     81 H81        32.0067   -3.8644   -1.6145 H         1 UNK         0.1312 
     82 H82        31.6448   -2.7650   -5.7469 H         1 UNK         0.1406 
     83 H83        29.3682   -6.0475   -4.2008 H         1 UNK         0.1631 
     84 H84        29.6889   -5.6901   -6.6804 H         1 UNK         0.0717 
     85 H85        30.3964   -4.2048   -7.2665 H         1 UNK         0.0717 
     86 H86        28.8887   -1.8052   -5.5133 H         1 UNK         0.0934 
     87 H87        29.4053   -1.9603   -7.1771 H         1 UNK         0.0934 
     88 H88        26.9605   -1.6925   -7.8796 H         1 UNK         0.0739 
     89 H89        26.4418   -1.7228   -5.1119 H         1 UNK         0.3093 
     90 H90        23.1638   -0.2378   -5.3364 H         1 UNK         0.0818 
     91 H91        22.6730   -2.3817   -4.2550 H         1 UNK         0.0819 
     92 H92        23.0895   -2.6671   -5.9337 H         1 UNK         0.0819 
     93 H93        24.2640   -3.0215   -4.6753 H         1 UNK         0.0819 
     94 H94        25.0186   -1.1588   -3.2410 H         1 UNK         0.3041 
     95 H95        25.9325    2.1326   -2.2815 H         1 UNK         0.0784 
     96 H96        23.7285    1.8914   -1.1211 H         1 UNK         0.0793 
     97 H97        24.0808    0.2036   -0.7766 H         1 UNK         0.0793 
     98 H98        25.0590    1.4807   -0.0520 H         1 UNK         0.0793 
     99 H99        26.4822   -0.3892   -1.0866 H         1 UNK         0.3024 
    100 H100       29.2200   -1.3444   -3.1445 H         1 UNK         0.1171 
    101 H101       29.1675   -0.2283   -0.2825 H         1 UNK         0.0786 
    102 H102       30.1251    0.4368   -1.5968 H         1 UNK         0.0786 
    103 H103       30.4555   -1.1863   -1.0164 H         1 UNK         0.0786 
    104 H104       28.3663   -2.5362   -0.7901 H         1 UNK         0.2977 
    105 H105       27.4051    0.9376   -5.5394 H         1 UNK         0.3127 
    106 H106       28.9555    2.7169   -6.9577 H         1 UNK         0.0770 
    107 H107       26.5182    3.2609   -5.1891 H         1 UNK         0.0814 
    108 H108       27.6905    4.4820   -5.6689 H         1 UNK         0.0814 
    109 H109       28.1980    3.1375   -4.6654 H         1 UNK         0.0814 
    110 H110       25.7337    1.7267   -7.9017 H         1 UNK         0.2983 
    111 H111       25.2232    3.9923   -9.6709 H         1 UNK         0.0947 
    112 H112       23.2642    2.6299  -10.3535 H         1 UNK         0.0806 
    113 H113       23.3697    2.6956   -8.6018 H         1 UNK         0.0806 
    114 H114       23.8786    1.2440   -9.4640 H         1 UNK         0.0806 
    115 H115       27.3124    1.2595   -9.9061 H         1 UNK         0.3000 
    116 H116       27.6186    1.6072  -12.8207 H         1 UNK         0.0850 
    117 H117       27.5085   -0.8944  -13.1495 H         1 UNK         0.0810 
    118 H118       25.9621   -0.2112  -12.6901 H         1 UNK         0.0810 
    119 H119       26.9157   -1.0773  -11.4955 H         1 UNK         0.0810 
    120 H120       28.9537   -1.1820  -11.3224 H         1 UNK         0.3040 
    121 H121       31.6804   -0.2324  -11.6138 H         1 UNK         0.0766 
    122 H122       32.2247   -2.5649  -10.9122 H         1 UNK         0.0812 
    123 H123       31.0477   -2.5513  -12.2148 H         1 UNK         0.0812 
    124 H124       30.5304   -2.8721  -10.5588 H         1 UNK         0.0812 
    125 H125       31.1636    1.5875  -10.0904 H         1 UNK         0.3205 
    126 H126       30.8288    1.3314   -7.3435 H         1 UNK         0.0754 
    127 H127       31.6267    3.7024   -7.2695 H         1 UNK         0.0769 
    128 H128       30.5773    3.4596   -8.6563 H         1 UNK         0.0769 
    129 H129       32.3236    3.5383   -8.8763 H         1 UNK         0.0769 
    130 H130       32.1694    1.5712   -5.5377 H         1 UNK         0.2981 
    131 H131       34.4751   -0.0735   -5.6120 H         1 UNK         0.0541 
    132 H132       36.1153    3.6060   -5.8152 H         1 UNK         0.3459 
    133 H133       34.4338    3.3328   -6.1993 H         1 UNK         0.3459 
    134 H134       33.4534    1.5513   -3.2388 H         1 UNK         0.0612 
    135 H135       34.5002    0.1573   -3.1651 H         1 UNK         0.0612 
    136 H136       33.7501   -2.2078   -4.2394 H         1 UNK         0.0624 
    137 H137       33.4696   -2.1821   -2.5108 H         1 UNK         0.0624 
@<TRIPOS>BOND
     1    1    2 1    
     2    1   72 1    
     3    1   73 1    
     4    1   74 1    
     5    2    3 2    
     6    2    4 am   BACKBONE|DICT|INTERRES
     7    4    5 1    
     8    4   75 1    
     9    5    6 1    
    10    5   35 1    
    11    5   76 1    
    12    6    7 1    
    13    6   77 1    
    14    6   78 1    
    15    7    8 1    
    16    8    9 1    
    17    8   79 1    
    18    8   80 1    
    19    9   10 ar   
    20    9   14 ar   
    21   10   11 ar   
    22   10   81 1    
    23   11   12 ar   
    24   11   71 1    
    25   12   13 ar   
    26   12   82 1    
    27   13   14 ar   
    28   13   15 1    
    29   14   83 1    
    30   15   16 1    
    31   15   84 1    
    32   15   85 1    
    33   16   17 1    
    34   17   18 1    
    35   17   86 1    
    36   17   87 1    
    37   18   19 1    
    38   18   37 1    
    39   18   88 1    
    40   19   20 am   BACKBONE|DICT|INTERRES
    41   19   89 1    
    42   20   21 2    
    43   20   22 1    
    44   22   23 1    
    45   22   24 1    
    46   22   90 1    
    47   23   91 1    
    48   23   92 1    
    49   23   93 1    
    50   24   25 am   BACKBONE|DICT|INTERRES
    51   24   94 1    
    52   25   26 2    
    53   25   27 1    
    54   27   28 1    
    55   27   29 1    
    56   27   95 1    
    57   28   96 1    
    58   28   97 1    
    59   28   98 1    
    60   29   30 am   BACKBONE|DICT|INTERRES
    61   29   99 1    
    62   30   31 2    
    63   30   32 1    
    64   32   33 1    
    65   32   34 1    
    66   32  100 1    
    67   33  101 1    
    68   33  102 1    
    69   33  103 1    
    70   34   35 am   BACKBONE|DICT|INTERRES
    71   34  104 1    
    72   35   36 2    
    73   37   38 2    
    74   37   39 am   BACKBONE|DICT|INTERRES
    75   39   40 1    
    76   39  105 1    
    77   40   41 1    
    78   40   42 1    
    79   40  106 1    
    80   41  107 1    
    81   41  108 1    
    82   41  109 1    
    83   42   43 2    
    84   42   44 am   BACKBONE|DICT|INTERRES
    85   44   45 1    
    86   44  110 1    
    87   45   46 1    
    88   45   47 1    
    89   45  111 1    
    90   46  112 1    
    91   46  113 1    
    92   46  114 1    
    93   47   48 2    
    94   47   49 am   BACKBONE|DICT|INTERRES
    95   49   50 1    
    96   49  115 1    
    97   50   51 1    
    98   50   52 1    
    99   50  116 1    
   100   51  117 1    
   101   51  118 1    
   102   51  119 1    
   103   52   53 2    
   104   52   54 am   BACKBONE|DICT|INTERRES
   105   54   55 1    
   106   54  120 1    
   107   55   56 1    
   108   55   57 1    
   109   55  121 1    
   110   56  122 1    
   111   56  123 1    
   112   56  124 1    
   113   57   58 2    
   114   57   59 am   BACKBONE|DICT|INTERRES
   115   59   60 1    
   116   59  125 1    
   117   60   61 1    
   118   60   62 1    
   119   60  126 1    
   120   61  127 1    
   121   61  128 1    
   122   61  129 1    
   123   62   63 2    
   124   62   64 am   BACKBONE|DICT|INTERRES
   125   64   65 1    
   126   64  130 1    
   127   65   66 1    
   128   65   69 1    
   129   65  131 1    
   130   66   67 am   BACKBONE|DICT|INTERRES
   131   66   68 2    
   132   67  132 1    
   133   67  133 1    
   134   69   70 1    
   135   69  134 1    
   136   69  135 1    
   137   70   71 1    
   138   71  136 1    
   139   71  137 1    
@<TRIPOS>SUBSTRUCTURE
     1 UNK         1 GROUP             0       ****    0 ROOT    
