@<TRIPOS>MOLECULE
3R137
137   139    1
SMALL
USER_CHARGES


@<TRIPOS>ATOM
      1 CA         27.7750   -0.1670    2.6848 C.3       0 UNK        -0.2020 
      2 C          27.8064   -0.9798    1.3992 C.2       0 UNK         0.4855 
      3 O          27.3921   -2.1374    1.4062 O.2       0 UNK        -0.5197 
      4 N          28.2666   -0.3651    0.3003 N.am      1 UNK        -0.4892 
      5 CA         28.4825   -0.8941   -1.0601 C.3       1 UNK         0.0835 
      6 C6         29.6348   -1.9411   -1.1505 C.3       12 UNK        -0.0855 
      7 S7         29.1579   -3.7025   -0.9851 S.3       12 UNK        -0.2931 
      8 C8         30.5731   -4.5578   -1.7444 C.3       12 UNK         0.0378 
      9 C9         30.7569   -4.2310   -3.2224 C.ar      12 UNK        -0.0802 
     10 C10        31.9369   -3.6169   -3.6539 C.ar      12 UNK        -0.0944 
     11 C11        32.1668   -3.3926   -5.0129 C.ar      12 UNK        -0.0787 
     12 C12        31.1874   -3.7647   -5.9387 C.ar      12 UNK        -0.0862 
     13 C13        29.9881   -4.3577   -5.5289 C.ar      12 UNK        -0.0733 
     14 C14        29.7848   -4.5962   -4.1622 C.ar      12 UNK        -0.0832 
     15 C15        28.9946   -4.7862   -6.6130 C.3       12 UNK         0.0240 
     16 S16        27.2760   -5.1233   -6.0841 S.3       12 UNK        -0.2522 
     17 C17        26.6628   -3.5048   -5.5101 C.3       12 UNK        -0.0967 
     18 CA         26.4280   -2.4669   -6.6420 C.3       5 UNK         0.0660 
     19 N          25.1988   -1.6831   -6.4508 N.am      5 UNK        -0.4015 
     20 C          24.7082   -0.8003   -7.3382 C.2       4 UNK         0.4946 
     21 O          25.2459   -0.5343   -8.4119 O.2       4 UNK        -0.5353 
     22 CA         23.3976   -0.0734   -6.9934 C.3       4 UNK         0.0277 
     23 CB         22.2028   -0.8004   -7.6307 C.3       4 UNK        -0.1981 
     24 N          23.1541    0.0894   -5.5629 N.am      4 UNK        -0.4209 
     25 C          23.9307    0.7609   -4.7026 C.2       3 UNK         0.4942 
     26 O          24.9707    1.3416   -5.0176 O.2       3 UNK        -0.5208 
     27 CA         23.4679    0.7672   -3.2340 C.3       3 UNK         0.0250 
     28 CB         21.9337    0.6751   -3.0722 C.3       3 UNK        -0.1990 
     29 N          24.1215   -0.2703   -2.4294 N.am      3 UNK        -0.4232 
     30 C          24.2165   -1.5854   -2.6853 C.2       2 UNK         0.4993 
     31 O          23.7792   -2.1337   -3.7004 O.2       2 UNK        -0.5286 
     32 CA         24.9466   -2.4154   -1.6115 C.3       2 UNK         0.0209 
     33 CB         25.2216   -3.8735   -2.0330 C.3       2 UNK        -0.1931 
     34 N          26.1878   -1.8043   -1.1213 N.am      2 UNK        -0.4546 
     35 C          27.2103   -1.3122   -1.8360 C.2       1 UNK         0.5154 
     36 O          27.1908   -1.1768   -3.0607 O.2       1 UNK        -0.5181 
     37 C          27.6498   -1.5521   -6.8468 C.2       5 UNK         0.5014 
     38 O          28.2223   -1.5360   -7.9388 O.2       5 UNK        -0.5248 
     39 N          27.9968   -0.7721   -5.8130 N.am      6 UNK        -0.4434 
     40 CA         29.1065    0.1790   -5.8524 C.3       6 UNK         0.0363 
     41 CB         29.3813    0.7288   -4.4466 C.3       6 UNK        -0.1936 
     42 C          28.8987    1.3291   -6.8455 C.2       6 UNK         0.5081 
     43 O          29.8894    1.8303   -7.3738 O.2       6 UNK        -0.5248 
     44 N          27.6414    1.7175   -7.1008 N.am      7 UNK        -0.4718 
     45 CA         27.2911    2.7281   -8.1004 C.3       7 UNK         0.0273 
     46 CB         25.8160    3.1289   -7.9495 C.3       7 UNK        -0.1935 
     47 C          27.5920    2.2609   -9.5345 C.2       7 UNK         0.5018 
     48 O          28.2053    3.0120  -10.2932 O.2       7 UNK        -0.5186 
     49 N          27.1807    1.0301   -9.8740 N.am      8 UNK        -0.4240 
     50 CA         27.4240    0.4138  -11.1801 C.3       8 UNK         0.0235 
     51 CB         26.5145   -0.8129  -11.3547 C.3       8 UNK        -0.2000 
     52 C          28.8956    0.0254  -11.3852 C.2       8 UNK         0.4941 
     53 O          29.4333    0.2524  -12.4698 O.2       8 UNK        -0.5273 
     54 N          29.5204   -0.5491  -10.3481 N.am      9 UNK        -0.4262 
     55 CA         30.9149   -0.9991  -10.3756 C.3       9 UNK         0.0264 
     56 CB         31.1129   -2.0519   -9.2769 C.3       9 UNK        -0.1955 
     57 C          31.9463    0.1364  -10.2307 C.2       9 UNK         0.5031 
     58 O          33.1234   -0.0990  -10.5073 O.2       9 UNK        -0.5390 
     59 N          31.5002    1.3257   -9.7977 N.am      10 UNK        -0.4204 
     60 CA         32.2941    2.5192   -9.4780 C.3       10 UNK         0.0237 
     61 CB         33.0039    3.0777  -10.7304 C.3       10 UNK        -0.1985 
     62 C          33.2425    2.2888   -8.2835 C.2       10 UNK         0.4970 
     63 O          34.3999    2.7118   -8.3199 O.2       10 UNK        -0.4914 
     64 N          32.7215    1.6249   -7.2447 N.am      11 UNK        -0.4285 
     65 CA         33.4204    1.3413   -5.9795 C.3       11 UNK         0.1007 
     66 C          33.2343    2.4569   -4.9119 C.2       11 UNK         0.5703 
     67 N          32.3662    3.4412   -5.1191 N.am      11 UNK        -0.7361 
     68 O          33.9005    2.4359   -3.8798 O.2       11 UNK        -0.4986 
     69 C69        33.0470   -0.0514   -5.4012 C.3       12 UNK        -0.0947 
     70 S70        33.3741   -1.4006   -6.5797 S.3       12 UNK        -0.2240 
     71 C71        33.5127   -2.8459   -5.4809 C.3       12 UNK         0.0194 
     72 H72        28.3795   -0.6540    3.4495 H         1 UNK         0.0906 
     73 H73        28.1596    0.8427    2.5420 H         1 UNK         0.0906 
     74 H74        26.7533   -0.0913    3.0562 H         1 UNK         0.0906 
     75 H75        28.5360    0.6048    0.3984 H         1 UNK         0.3140 
     76 H76        28.8381   -0.0132   -1.5959 H         1 UNK         0.1085 
     77 H77        30.1208   -1.8242   -2.1196 H         1 UNK         0.0836 
     78 H78        30.4089   -1.7200   -0.4142 H         1 UNK         0.0836 
     79 H79        31.4726   -4.3165   -1.1758 H         1 UNK         0.0731 
     80 H80        30.4276   -5.6336   -1.6385 H         1 UNK         0.0731 
     81 H81        32.6986   -3.3533   -2.9328 H         1 UNK         0.1312 
     82 H82        31.3772   -3.6191   -6.9922 H         1 UNK         0.1406 
     83 H83        28.8834   -5.0852   -3.8202 H         1 UNK         0.1631 
     84 H84        28.9758   -4.0472   -7.4137 H         1 UNK         0.0717 
     85 H85        29.3799   -5.7000   -7.0669 H         1 UNK         0.0717 
     86 H86        25.7129   -3.7182   -5.0191 H         1 UNK         0.0934 
     87 H87        27.3171   -3.1356   -4.7197 H         1 UNK         0.0934 
     88 H88        26.2806   -3.0111   -7.5775 H         1 UNK         0.0739 
     89 H89        24.6973   -1.8208   -5.5791 H         1 UNK         0.3093 
     90 H90        23.4529    0.9261   -7.4265 H         1 UNK         0.0818 
     91 H91        21.2752   -0.2467   -7.4840 H         1 UNK         0.0819 
     92 H92        22.3435   -0.9123   -8.7069 H         1 UNK         0.0819 
     93 H93        22.0689   -1.7996   -7.2141 H         1 UNK         0.0819 
     94 H94        22.3544   -0.3970   -5.1835 H         1 UNK         0.3041 
     95 H95        23.7838    1.7268   -2.8216 H         1 UNK         0.0784 
     96 H96        21.4262    1.4210   -3.6858 H         1 UNK         0.0793 
     97 H97        21.5432   -0.3052   -3.3477 H         1 UNK         0.0793 
     98 H98        21.6411    0.8616   -2.0388 H         1 UNK         0.0793 
     99 H99        24.5762    0.0619   -1.5905 H         1 UNK         0.3024 
    100 H100       24.2616   -2.4512   -0.7629 H         1 UNK         0.1171 
    101 H101       25.5304   -4.4722   -1.1760 H         1 UNK         0.0786 
    102 H102       24.3343   -4.3490   -2.4528 H         1 UNK         0.0786 
    103 H103       26.0182   -3.9369   -2.7717 H         1 UNK         0.0786 
    104 H104       26.3712   -1.9099   -0.1255 H         1 UNK         0.2977 
    105 H105       27.5013   -0.8581   -4.9274 H         1 UNK         0.3127 
    106 H106       29.9885   -0.3714   -6.1850 H         1 UNK         0.0770 
    107 H107       28.4881    1.1735   -4.0061 H         1 UNK         0.0814 
    108 H108       30.1540    1.4984   -4.4647 H         1 UNK         0.0814 
    109 H109       29.7324   -0.0632   -3.7874 H         1 UNK         0.0814 
    110 H110       26.8816    1.2705   -6.6038 H         1 UNK         0.2983 
    111 H111       27.9018    3.6126   -7.9055 H         1 UNK         0.0947 
    112 H112       25.5635    3.9430   -8.6301 H         1 UNK         0.0806 
    113 H113       25.5966    3.4705   -6.9377 H         1 UNK         0.0806 
    114 H114       25.1484    2.2990   -8.1762 H         1 UNK         0.0806 
    115 H115       26.6539    0.4749   -9.2021 H         1 UNK         0.3000 
    116 H116       27.1617    1.1411  -11.9517 H         1 UNK         0.0850 
    117 H117       26.6675   -1.2795  -12.3287 H         1 UNK         0.0810 
    118 H118       25.4618   -0.5374  -11.2876 H         1 UNK         0.0810 
    119 H119       26.7089   -1.5700  -10.5933 H         1 UNK         0.0810 
    120 H120       28.9921   -0.7506   -9.5004 H         1 UNK         0.3040 
    121 H121       31.1019   -1.4811  -11.3377 H         1 UNK         0.0766 
    122 H122       30.4412   -2.8996   -9.4125 H         1 UNK         0.0812 
    123 H123       30.9250   -1.6303   -8.2891 H         1 UNK         0.0812 
    124 H124       32.1325   -2.4395   -9.2818 H         1 UNK         0.0812 
    125 H125       30.5204    1.3906   -9.5519 H         1 UNK         0.3205 
    126 H126       31.5773    3.2736   -9.1498 H         1 UNK         0.0754 
    127 H127       33.4718    4.0393  -10.5162 H         1 UNK         0.0769 
    128 H128       32.2992    3.2355  -11.5470 H         1 UNK         0.0769 
    129 H129       33.7877    2.4093  -11.0876 H         1 UNK         0.0769 
    130 H130       31.7320    1.3992   -7.2770 H         1 UNK         0.2981 
    131 H131       34.4922    1.3163   -6.1844 H         1 UNK         0.0541 
    132 H132       31.8111    3.4656   -5.9596 H         1 UNK         0.3459 
    133 H133       32.2629    4.1621   -4.4228 H         1 UNK         0.3459 
    134 H134       33.6209   -0.2464   -4.4934 H         1 UNK         0.0612 
    135 H135       31.9989   -0.0902   -5.1110 H         1 UNK         0.0612 
    136 H136       34.1531   -2.5935   -4.6345 H         1 UNK         0.0624 
    137 H137       34.0292   -3.6374   -6.0252 H         1 UNK         0.0624 
@<TRIPOS>BOND
     1    1    2 1    
     2    1   72 1    
     3    1   73 1    
     4    1   74 1    
     5    2    3 2    
     6    2    4 am   BACKBONE|DICT|INTERRES
     7    4    5 1    
     8    4   75 1    
     9    5    6 1    
    10    5   35 1    
    11    5   76 1    
    12    6    7 1    
    13    6   77 1    
    14    6   78 1    
    15    7    8 1    
    16    8    9 1    
    17    8   79 1    
    18    8   80 1    
    19    9   10 ar   
    20    9   14 ar   
    21   10   11 ar   
    22   10   81 1    
    23   11   12 ar   
    24   11   71 1    
    25   12   13 ar   
    26   12   82 1    
    27   13   14 ar   
    28   13   15 1    
    29   14   83 1    
    30   15   16 1    
    31   15   84 1    
    32   15   85 1    
    33   16   17 1    
    34   17   18 1    
    35   17   86 1    
    36   17   87 1    
    37   18   19 1    
    38   18   37 1    
    39   18   88 1    
    40   19   20 am   BACKBONE|DICT|INTERRES
    41   19   89 1    
    42   20   21 2    
    43   20   22 1    
    44   22   23 1    
    45   22   24 1    
    46   22   90 1    
    47   23   91 1    
    48   23   92 1    
    49   23   93 1    
    50   24   25 am   BACKBONE|DICT|INTERRES
    51   24   94 1    
    52   25   26 2    
    53   25   27 1    
    54   27   28 1    
    55   27   29 1    
    56   27   95 1    
    57   28   96 1    
    58   28   97 1    
    59   28   98 1    
    60   29   30 am   BACKBONE|DICT|INTERRES
    61   29   99 1    
    62   30   31 2    
    63   30   32 1    
    64   32   33 1    
    65   32   34 1    
    66   32  100 1    
    67   33  101 1    
    68   33  102 1    
    69   33  103 1    
    70   34   35 am   BACKBONE|DICT|INTERRES
    71   34  104 1    
    72   35   36 2    
    73   37   38 2    
    74   37   39 am   BACKBONE|DICT|INTERRES
    75   39   40 1    
    76   39  105 1    
    77   40   41 1    
    78   40   42 1    
    79   40  106 1    
    80   41  107 1    
    81   41  108 1    
    82   41  109 1    
    83   42   43 2    
    84   42   44 am   BACKBONE|DICT|INTERRES
    85   44   45 1    
    86   44  110 1    
    87   45   46 1    
    88   45   47 1    
    89   45  111 1    
    90   46  112 1    
    91   46  113 1    
    92   46  114 1    
    93   47   48 2    
    94   47   49 am   BACKBONE|DICT|INTERRES
    95   49   50 1    
    96   49  115 1    
    97   50   51 1    
    98   50   52 1    
    99   50  116 1    
   100   51  117 1    
   101   51  118 1    
   102   51  119 1    
   103   52   53 2    
   104   52   54 am   BACKBONE|DICT|INTERRES
   105   54   55 1    
   106   54  120 1    
   107   55   56 1    
   108   55   57 1    
   109   55  121 1    
   110   56  122 1    
   111   56  123 1    
   112   56  124 1    
   113   57   58 2    
   114   57   59 am   BACKBONE|DICT|INTERRES
   115   59   60 1    
   116   59  125 1    
   117   60   61 1    
   118   60   62 1    
   119   60  126 1    
   120   61  127 1    
   121   61  128 1    
   122   61  129 1    
   123   62   63 2    
   124   62   64 am   BACKBONE|DICT|INTERRES
   125   64   65 1    
   126   64  130 1    
   127   65   66 1    
   128   65   69 1    
   129   65  131 1    
   130   66   67 am   BACKBONE|DICT|INTERRES
   131   66   68 2    
   132   67  132 1    
   133   67  133 1    
   134   69   70 1    
   135   69  134 1    
   136   69  135 1    
   137   70   71 1    
   138   71  136 1    
   139   71  137 1    
@<TRIPOS>SUBSTRUCTURE
     1 UNK         1 GROUP             0       ****    0 ROOT    
