@<TRIPOS>MOLECULE
3R137
137   139    1
SMALL
USER_CHARGES


@<TRIPOS>ATOM
      1 CA         26.7981   -6.2481   -4.9737 C.3       0 UNK        -0.2020 
      2 C          26.4219   -5.4994   -3.7050 C.2       0 UNK         0.4855 
      3 O          25.2414   -5.2330   -3.4783 O.2       0 UNK        -0.5197 
      4 N          27.4118   -5.1490   -2.8745 N.am      1 UNK        -0.4892 
      5 CA         27.2309   -4.3972   -1.6288 C.3       1 UNK         0.0835 
      6 C6         28.5030   -4.3950   -0.7406 C.3       12 UNK        -0.0855 
      7 S7         30.0470   -3.9822   -1.6276 S.3       12 UNK        -0.2931 
      8 C8         30.4845   -2.3416   -0.9512 C.3       12 UNK         0.0378 
      9 C9         30.8920   -1.3505   -2.0373 C.ar      12 UNK        -0.0802 
     10 C10        31.7495   -1.7314   -3.0736 C.ar      12 UNK        -0.0944 
     11 C11        32.0873   -0.8350   -4.0896 C.ar      12 UNK        -0.0787 
     12 C12        31.5685    0.4631   -4.0594 C.ar      12 UNK        -0.0862 
     13 C13        30.7399    0.8779   -3.0089 C.ar      12 UNK        -0.0733 
     14 C14        30.4209   -0.0349   -1.9946 C.ar      12 UNK        -0.0832 
     15 C15        30.2480    2.3276   -2.9817 C.3       12 UNK         0.0240 
     16 S16        28.6406    2.6222   -2.1485 S.3       12 UNK        -0.2522 
     17 C17        27.5003    1.3774   -2.8481 C.3       12 UNK        -0.0967 
     18 CA         27.4861    1.2938   -4.3951 C.3       5 UNK         0.0660 
     19 N          27.2719   -0.0769   -4.8543 N.am      5 UNK        -0.4015 
     20 C          27.4121   -0.4915   -6.1199 C.2       4 UNK         0.4946 
     21 O          27.7910    0.2272   -7.0458 O.2       4 UNK        -0.5353 
     22 CA         27.0105   -1.9469   -6.4025 C.3       4 UNK         0.0277 
     23 CB         28.1677   -2.9065   -6.0777 C.3       4 UNK        -0.1981 
     24 N          25.8079   -2.3327   -5.6558 N.am      4 UNK        -0.4209 
     25 C          24.5883   -1.8184   -5.8791 C.2       3 UNK         0.4942 
     26 O          24.3352   -1.0283   -6.7875 O.2       3 UNK        -0.5208 
     27 CA         23.4747   -2.2048   -4.8925 C.3       3 UNK         0.0250 
     28 CB         22.8347   -3.5455   -5.2853 C.3       3 UNK        -0.1990 
     29 N          23.9464   -2.2523   -3.5047 N.am      3 UNK        -0.4232 
     30 C          24.3093   -1.1646   -2.8059 C.2       2 UNK         0.4993 
     31 O          24.2587   -0.0219   -3.2560 O.2       2 UNK        -0.5286 
     32 CA         24.8640   -1.3691   -1.3851 C.3       2 UNK         0.0209 
     33 CB         23.7322   -1.2805   -0.3495 C.3       2 UNK        -0.1931 
     34 N          25.5942   -2.6262   -1.2061 N.am      2 UNK        -0.4546 
     35 C          26.6819   -2.9813   -1.9034 C.2       1 UNK         0.5154 
     36 O          27.2039   -2.2621   -2.7602 O.2       1 UNK        -0.5181 
     37 C          26.4851    2.2836   -5.0248 C.2       5 UNK         0.5014 
     38 O          26.9068    3.3171   -5.5438 O.2       5 UNK        -0.5248 
     39 N          25.1892    1.9347   -5.0167 N.am      6 UNK        -0.4434 
     40 CA         24.1050    2.7017   -5.6405 C.3       6 UNK         0.0363 
     41 CB         22.7510    2.0746   -5.2733 C.3       6 UNK        -0.1936 
     42 C          24.2445    2.8223   -7.1677 C.2       6 UNK         0.5081 
     43 O          23.9301    3.8756   -7.7220 O.2       6 UNK        -0.5248 
     44 N          24.7464    1.7621   -7.8158 N.am      7 UNK        -0.4718 
     45 CA         25.1005    1.7433   -9.2383 C.3       7 UNK         0.0273 
     46 CB         25.2380    0.2820   -9.6975 C.3       7 UNK        -0.1935 
     47 C          26.3849    2.5308   -9.5682 C.2       7 UNK         0.5018 
     48 O          26.6569    2.7464  -10.7502 O.2       7 UNK        -0.5186 
     49 N          27.1492    2.9271   -8.5378 N.am      8 UNK        -0.4240 
     50 CA         28.4507    3.6008   -8.5870 C.3       8 UNK         0.0235 
     51 CB         28.3142    5.0257   -9.1654 C.3       8 UNK        -0.2000 
     52 C          29.5239    2.7537   -9.2959 C.2       8 UNK         0.4941 
     53 O          30.3071    3.2848  -10.0870 O.2       8 UNK        -0.5273 
     54 N          29.5299    1.4438   -9.0126 N.am      9 UNK        -0.4262 
     55 CA         30.4834    0.4844   -9.5656 C.3       9 UNK         0.0264 
     56 CB         29.9838   -0.9403   -9.2759 C.3       9 UNK        -0.1955 
     57 C          31.8909    0.6805   -8.9802 C.2       9 UNK         0.5031 
     58 O          32.0276    1.0053   -7.7983 O.2       9 UNK        -0.5390 
     59 N          32.9105    0.4266   -9.8103 N.am      10 UNK        -0.4204 
     60 CA         34.3175    0.3858   -9.3980 C.3       10 UNK         0.0237 
     61 CB         35.2119    0.6059  -10.6296 C.3       10 UNK        -0.1985 
     62 C          34.6910   -0.9306   -8.6900 C.2       10 UNK         0.4970 
     63 O          35.6852   -0.9567   -7.9644 O.2       10 UNK        -0.4914 
     64 N          33.8989   -1.9878   -8.9237 N.am      11 UNK        -0.4285 
     65 CA         34.0451   -3.3448   -8.3677 C.3       11 UNK         0.1007 
     66 C          35.2866   -4.1337   -8.8885 C.2       11 UNK         0.5703 
     67 N          35.9375   -3.7093   -9.9655 N.am      11 UNK        -0.7361 
     68 O          35.6490   -5.1680   -8.3321 O.2       11 UNK        -0.4986 
     69 C69        33.9137   -3.3946   -6.8182 C.3       12 UNK        -0.0947 
     70 S70        32.3762   -2.6337   -6.1881 S.3       12 UNK        -0.2240 
     71 C71        33.0502   -1.2694   -5.1854 C.3       12 UNK         0.0194 
     72 H72        26.4346   -7.2740   -4.9231 H         1 UNK         0.0906 
     73 H73        26.3438   -5.7701   -5.8412 H         1 UNK         0.0906 
     74 H74        27.8770   -6.2752   -5.1258 H         1 UNK         0.0906 
     75 H75        28.3738   -5.3429   -3.1166 H         1 UNK         0.3140 
     76 H76        26.4634   -4.9332   -1.0654 H         1 UNK         0.1085 
     77 H77        28.6404   -5.3960   -0.3284 H         1 UNK         0.0836 
     78 H78        28.3719   -3.7503    0.1302 H         1 UNK         0.0836 
     79 H79        31.3071   -2.4559   -0.2443 H         1 UNK         0.0731 
     80 H80        29.6423   -1.9409   -0.3859 H         1 UNK         0.0731 
     81 H81        32.1488   -2.7360   -3.1002 H         1 UNK         0.1312 
     82 H82        31.8317    1.1585   -4.8457 H         1 UNK         0.1406 
     83 H83        29.7955    0.2749   -1.1693 H         1 UNK         0.1631 
     84 H84        30.1954    2.7299   -3.9942 H         1 UNK         0.0717 
     85 H85        31.0020    2.9257   -2.4688 H         1 UNK         0.0717 
     86 H86        27.7826    0.4143   -2.4229 H         1 UNK         0.0934 
     87 H87        26.5007    1.5658   -2.4510 H         1 UNK         0.0934 
     88 H88        28.4676    1.5625   -4.7825 H         1 UNK         0.0739 
     89 H89        27.0226   -0.7637   -4.1500 H         1 UNK         0.3093 
     90 H90        26.7899   -2.0270   -7.4690 H         1 UNK         0.0818 
     91 H91        28.4012   -2.9246   -5.0127 H         1 UNK         0.0819 
     92 H92        27.9382   -3.9236   -6.3918 H         1 UNK         0.0819 
     93 H93        29.0795   -2.6115   -6.5973 H         1 UNK         0.0819 
     94 H94        25.9365   -2.9364   -4.8558 H         1 UNK         0.3041 
     95 H95        22.7007   -1.4366   -4.9536 H         1 UNK         0.0784 
     96 H96        22.4087   -3.4908   -6.2881 H         1 UNK         0.0793 
     97 H97        23.5590   -4.3599   -5.2872 H         1 UNK         0.0793 
     98 H98        22.0268   -3.8153   -4.6051 H         1 UNK         0.0793 
     99 H99        24.0567   -3.1675   -3.0868 H         1 UNK         0.3024 
    100 H100       25.5652   -0.5537   -1.1946 H         1 UNK         0.1171 
    101 H101       24.1204   -1.3212    0.6684 H         1 UNK         0.0786 
    102 H102       23.1867   -0.3406   -0.4479 H         1 UNK         0.0786 
    103 H103       23.0105   -2.0897   -0.4681 H         1 UNK         0.0786 
    104 H104       25.2131   -3.2737   -0.5307 H         1 UNK         0.2977 
    105 H105       24.9088    1.0977   -4.5055 H         1 UNK         0.3127 
    106 H106       24.1371    3.7117   -5.2268 H         1 UNK         0.0770 
    107 H107       22.6728    1.0482   -5.6336 H         1 UNK         0.0814 
    108 H108       21.9265    2.6391   -5.7109 H         1 UNK         0.0814 
    109 H109       22.5990    2.0626   -4.1939 H         1 UNK         0.0814 
    110 H110       24.9068    0.9038   -7.2975 H         1 UNK         0.2983 
    111 H111       24.2859    2.2042   -9.8011 H         1 UNK         0.0947 
    112 H112       25.4584    0.2241  -10.7642 H         1 UNK         0.0806 
    113 H113       24.3174   -0.2763   -9.5266 H         1 UNK         0.0806 
    114 H114       26.0430   -0.2303   -9.1699 H         1 UNK         0.0806 
    115 H115       26.8309    2.6922   -7.6048 H         1 UNK         0.3000 
    116 H116       28.7812    3.6971   -7.5518 H         1 UNK         0.0850 
    117 H117       29.2551    5.5712   -9.0842 H         1 UNK         0.0810 
    118 H118       27.5599    5.5999   -8.6274 H         1 UNK         0.0810 
    119 H119       28.0375    5.0113  -10.2199 H         1 UNK         0.0810 
    120 H120       28.8744    1.0838   -8.3206 H         1 UNK         0.3040 
    121 H121       30.5187    0.6298  -10.6475 H         1 UNK         0.0766 
    122 H122       30.6168   -1.6871   -9.7561 H         1 UNK         0.0812 
    123 H123       29.9882   -1.1497   -8.2057 H         1 UNK         0.0812 
    124 H124       28.9679   -1.0902   -9.6421 H         1 UNK         0.0812 
    125 H125       32.7113    0.1962  -10.7739 H         1 UNK         0.3205 
    126 H126       34.5014    1.2002   -8.6937 H         1 UNK         0.0754 
    127 H127       36.2668    0.6044  -10.3511 H         1 UNK         0.0769 
    128 H128       35.0059    1.5668  -11.1017 H         1 UNK         0.0769 
    129 H129       35.0717   -0.1739  -11.3793 H         1 UNK         0.0769 
    130 H130       33.1178   -1.8638   -9.5483 H         1 UNK         0.2981 
    131 H131       33.1960   -3.8993   -8.7683 H         1 UNK         0.0541 
    132 H132       35.6484   -2.8709  -10.4419 H         1 UNK         0.3459 
    133 H133       36.7307   -4.2336  -10.2999 H         1 UNK         0.3459 
    134 H134       33.9111   -4.4302   -6.4741 H         1 UNK         0.0612 
    135 H135       34.7841   -2.9318   -6.3518 H         1 UNK         0.0612 
    136 H136       33.9799   -1.5826   -4.7090 H         1 UNK         0.0624 
    137 H137       33.3037   -0.4370   -5.8430 H         1 UNK         0.0624 
@<TRIPOS>BOND
     1    1    2 1    
     2    1   72 1    
     3    1   73 1    
     4    1   74 1    
     5    2    3 2    
     6    2    4 am   BACKBONE|DICT|INTERRES
     7    4    5 1    
     8    4   75 1    
     9    5    6 1    
    10    5   35 1    
    11    5   76 1    
    12    6    7 1    
    13    6   77 1    
    14    6   78 1    
    15    7    8 1    
    16    8    9 1    
    17    8   79 1    
    18    8   80 1    
    19    9   10 ar   
    20    9   14 ar   
    21   10   11 ar   
    22   10   81 1    
    23   11   12 ar   
    24   11   71 1    
    25   12   13 ar   
    26   12   82 1    
    27   13   14 ar   
    28   13   15 1    
    29   14   83 1    
    30   15   16 1    
    31   15   84 1    
    32   15   85 1    
    33   16   17 1    
    34   17   18 1    
    35   17   86 1    
    36   17   87 1    
    37   18   19 1    
    38   18   37 1    
    39   18   88 1    
    40   19   20 am   BACKBONE|DICT|INTERRES
    41   19   89 1    
    42   20   21 2    
    43   20   22 1    
    44   22   23 1    
    45   22   24 1    
    46   22   90 1    
    47   23   91 1    
    48   23   92 1    
    49   23   93 1    
    50   24   25 am   BACKBONE|DICT|INTERRES
    51   24   94 1    
    52   25   26 2    
    53   25   27 1    
    54   27   28 1    
    55   27   29 1    
    56   27   95 1    
    57   28   96 1    
    58   28   97 1    
    59   28   98 1    
    60   29   30 am   BACKBONE|DICT|INTERRES
    61   29   99 1    
    62   30   31 2    
    63   30   32 1    
    64   32   33 1    
    65   32   34 1    
    66   32  100 1    
    67   33  101 1    
    68   33  102 1    
    69   33  103 1    
    70   34   35 am   BACKBONE|DICT|INTERRES
    71   34  104 1    
    72   35   36 2    
    73   37   38 2    
    74   37   39 am   BACKBONE|DICT|INTERRES
    75   39   40 1    
    76   39  105 1    
    77   40   41 1    
    78   40   42 1    
    79   40  106 1    
    80   41  107 1    
    81   41  108 1    
    82   41  109 1    
    83   42   43 2    
    84   42   44 am   BACKBONE|DICT|INTERRES
    85   44   45 1    
    86   44  110 1    
    87   45   46 1    
    88   45   47 1    
    89   45  111 1    
    90   46  112 1    
    91   46  113 1    
    92   46  114 1    
    93   47   48 2    
    94   47   49 am   BACKBONE|DICT|INTERRES
    95   49   50 1    
    96   49  115 1    
    97   50   51 1    
    98   50   52 1    
    99   50  116 1    
   100   51  117 1    
   101   51  118 1    
   102   51  119 1    
   103   52   53 2    
   104   52   54 am   BACKBONE|DICT|INTERRES
   105   54   55 1    
   106   54  120 1    
   107   55   56 1    
   108   55   57 1    
   109   55  121 1    
   110   56  122 1    
   111   56  123 1    
   112   56  124 1    
   113   57   58 2    
   114   57   59 am   BACKBONE|DICT|INTERRES
   115   59   60 1    
   116   59  125 1    
   117   60   61 1    
   118   60   62 1    
   119   60  126 1    
   120   61  127 1    
   121   61  128 1    
   122   61  129 1    
   123   62   63 2    
   124   62   64 am   BACKBONE|DICT|INTERRES
   125   64   65 1    
   126   64  130 1    
   127   65   66 1    
   128   65   69 1    
   129   65  131 1    
   130   66   67 am   BACKBONE|DICT|INTERRES
   131   66   68 2    
   132   67  132 1    
   133   67  133 1    
   134   69   70 1    
   135   69  134 1    
   136   69  135 1    
   137   70   71 1    
   138   71  136 1    
   139   71  137 1    
@<TRIPOS>SUBSTRUCTURE
     1 UNK         1 GROUP             0       ****    0 ROOT    
