@<TRIPOS>MOLECULE
3R137
137   139    1
SMALL
USER_CHARGES


@<TRIPOS>ATOM
      1 CA         26.1610   -3.0623    0.0750 C.3       0 UNK        -0.2020 
      2 C          25.8711   -3.3889   -1.3815 C.2       0 UNK         0.4855 
      3 O          24.7827   -3.8744   -1.6932 O.2       0 UNK        -0.5197 
      4 N          26.8326   -3.1140   -2.2725 N.am      1 UNK        -0.4892 
      5 CA         26.7865   -3.3516   -3.7220 C.3       1 UNK         0.0835 
      6 C6         26.7399   -4.8551   -4.1289 C.3       12 UNK        -0.0855 
      7 S7         27.9981   -5.8855   -3.2912 S.3       12 UNK        -0.2931 
      8 C8         29.4849   -5.6403   -4.3200 C.3       12 UNK         0.0378 
      9 C9         29.9952   -4.2059   -4.2674 C.ar      12 UNK        -0.0802 
     10 C10        30.1366   -3.4687   -5.4465 C.ar      12 UNK        -0.0944 
     11 C11        30.5609   -2.1378   -5.4047 C.ar      12 UNK        -0.0787 
     12 C12        30.8490   -1.5442   -4.1732 C.ar      12 UNK        -0.0862 
     13 C13        30.6928   -2.2636   -2.9844 C.ar      12 UNK        -0.0733 
     14 C14        30.2888   -3.6006   -3.0399 C.ar      12 UNK        -0.0832 
     15 C15        30.9389   -1.5957   -1.6386 C.3       12 UNK         0.0240 
     16 S16        29.4194   -0.8281   -0.9777 S.3       12 UNK        -0.2522 
     17 C17        29.2583    0.6416   -2.0474 C.3       12 UNK        -0.0967 
     18 CA         28.1358    0.4512   -3.1097 C.3       5 UNK         0.0660 
     19 N          26.7761    0.7511   -2.6309 N.am      5 UNK        -0.4015 
     20 C          26.3224    1.9531   -2.2396 C.2       4 UNK         0.4946 
     21 O          27.0499    2.9228   -2.0216 O.2       4 UNK        -0.5353 
     22 CA         24.8001    2.1527   -2.1188 C.3       4 UNK         0.0277 
     23 CB         24.3007    3.0975   -3.2257 C.3       4 UNK        -0.1981 
     24 N          24.0110    0.9218   -2.1818 N.am      4 UNK        -0.4209 
     25 C          23.7734    0.1043   -1.1515 C.2       3 UNK         0.4942 
     26 O          24.2853    0.2420   -0.0407 O.2       3 UNK        -0.5208 
     27 CA         22.7963   -1.0617   -1.3894 C.3       3 UNK         0.0250 
     28 CB         21.3331   -0.6054   -1.2285 C.3       3 UNK        -0.1990 
     29 N          23.0084   -1.7839   -2.6517 N.am      3 UNK        -0.4232 
     30 C          22.8281   -1.3708   -3.9171 C.2       2 UNK         0.4993 
     31 O          22.3951   -0.2572   -4.2185 O.2       2 UNK        -0.5286 
     32 CA         23.2780   -2.3543   -5.0200 C.3       2 UNK         0.0209 
     33 CB         23.4119   -1.6896   -6.4087 C.3       2 UNK        -0.1931 
     34 N          24.5148   -3.0584   -4.6479 N.am      2 UNK        -0.4546 
     35 C          25.6930   -2.4810   -4.3685 C.2       1 UNK         0.5154 
     36 O          25.9244   -1.2840   -4.5494 O.2       1 UNK        -0.5181 
     37 C          28.3800    1.1932   -4.4417 C.2       5 UNK         0.5014 
     38 O          29.3270    1.9705   -4.5692 O.2       5 UNK        -0.5248 
     39 N          27.4777    0.9514   -5.4021 N.am      6 UNK        -0.4434 
     40 CA         27.4348    1.6127   -6.7062 C.3       6 UNK         0.0363 
     41 CB         26.6189    2.9163   -6.5994 C.3       6 UNK        -0.1936 
     42 C          26.9054    0.6723   -7.8023 C.2       6 UNK         0.5081 
     43 O          26.3224    1.1444   -8.7787 O.2       6 UNK        -0.5248 
     44 N          27.1196   -0.6427   -7.6398 N.am      7 UNK        -0.4718 
     45 CA         26.7506   -1.6760   -8.6186 C.3       7 UNK         0.0273 
     46 CB         26.9237   -3.0659   -7.9849 C.3       7 UNK        -0.1935 
     47 C          27.5307   -1.5899   -9.9467 C.2       7 UNK         0.5018 
     48 O          27.0323   -2.0593  -10.9705 O.2       7 UNK        -0.5186 
     49 N          28.7221   -0.9851   -9.9095 N.am      8 UNK        -0.4240 
     50 CA         29.5634   -0.6507  -11.0507 C.3       8 UNK         0.0235 
     51 CB         30.4624   -1.8443  -11.4192 C.3       8 UNK        -0.2000 
     52 C          30.3929    0.5764  -10.6583 C.2       8 UNK         0.4941 
     53 O          30.6046    0.8108   -9.4653 O.2       8 UNK        -0.5273 
     54 N          30.8534    1.3347  -11.6610 N.am      9 UNK        -0.4262 
     55 CA         31.6248    2.5676  -11.4697 C.3       9 UNK         0.0264 
     56 CB         31.7099    3.3319  -12.8010 C.3       9 UNK        -0.1955 
     57 C          33.0317    2.3333  -10.8936 C.2       9 UNK         0.5031 
     58 O          33.5113    3.1654  -10.1228 O.2       9 UNK        -0.5390 
     59 N          33.6598    1.2066  -11.2615 N.am      10 UNK        -0.4204 
     60 CA         35.0199    0.8258  -10.8603 C.3       10 UNK         0.0237 
     61 CB         35.4311   -0.4488  -11.6155 C.3       10 UNK        -0.1985 
     62 C          35.2031    0.6317   -9.3438 C.2       10 UNK         0.4970 
     63 O          36.2964    0.8808   -8.8345 O.2       10 UNK        -0.4914 
     64 N          34.1364    0.2017   -8.6630 N.am      11 UNK        -0.4285 
     65 CA         34.0543    0.0339   -7.2054 C.3       11 UNK         0.1007 
     66 C          33.3231    1.2047   -6.4854 C.2       11 UNK         0.5703 
     67 N          32.9607    2.2880   -7.1635 N.am      11 UNK        -0.7361 
     68 O          33.1068    1.1448   -5.2777 O.2       11 UNK        -0.4986 
     69 C69        33.5050   -1.3692   -6.8179 C.3       12 UNK        -0.0947 
     70 S70        32.0280   -1.8994   -7.7518 S.3       12 UNK        -0.2240 
     71 C71        30.6702   -1.3310   -6.6883 C.3       12 UNK         0.0194 
     72 H72        27.1670   -2.6668    0.2134 H         1 UNK         0.0906 
     73 H73        25.4525   -2.3207    0.4426 H         1 UNK         0.0906 
     74 H74        26.0633   -3.9594    0.6857 H         1 UNK         0.0906 
     75 H75        27.6943   -2.7027   -1.9401 H         1 UNK         0.3140 
     76 H76        27.7128   -2.9387   -4.1140 H         1 UNK         0.1085 
     77 H77        26.8567   -4.9634   -5.2088 H         1 UNK         0.0836 
     78 H78        25.7728   -5.2945   -3.8806 H         1 UNK         0.0836 
     79 H79        29.2631   -5.9432   -5.3446 H         1 UNK         0.0731 
     80 H80        30.2728   -6.3060   -3.9654 H         1 UNK         0.0731 
     81 H81        29.9111   -3.9260   -6.4000 H         1 UNK         0.1312 
     82 H82        31.1758   -0.5136   -4.1422 H         1 UNK         0.1406 
     83 H83        30.1661   -4.1638   -2.1243 H         1 UNK         0.1631 
     84 H84        31.7303   -0.8489   -1.7198 H         1 UNK         0.0717 
     85 H85        31.2969   -2.3350   -0.9204 H         1 UNK         0.0717 
     86 H86        29.0759    1.5125   -1.4185 H         1 UNK         0.0934 
     87 H87        30.2276    0.8310   -2.5093 H         1 UNK         0.0934 
     88 H88        28.1371   -0.6019   -3.3882 H         1 UNK         0.0739 
     89 H89        26.0894    0.0359   -2.8316 H         1 UNK         0.3093 
     90 H90        24.6175    2.6343   -1.1556 H         1 UNK         0.0818 
     91 H91        24.4261    2.6574   -4.2154 H         1 UNK         0.0819 
     92 H92        23.2445    3.3351   -3.0970 H         1 UNK         0.0819 
     93 H93        24.8461    4.0423   -3.2162 H         1 UNK         0.0819 
     94 H94        23.5234    0.7209   -3.0525 H         1 UNK         0.3041 
     95 H95        22.9937   -1.7935   -0.6042 H         1 UNK         0.0784 
     96 H96        21.1696   -0.1694   -0.2421 H         1 UNK         0.0793 
     97 H97        21.0542    0.1497   -1.9640 H         1 UNK         0.0793 
     98 H98        20.6436   -1.4434   -1.3304 H         1 UNK         0.0793 
     99 H99        23.4517   -2.6907   -2.5243 H         1 UNK         0.3024 
    100 H100       22.4930   -3.1093   -5.0892 H         1 UNK         0.1171 
    101 H101       23.7284   -2.4090   -7.1635 H         1 UNK         0.0786 
    102 H102       22.4566   -1.2777   -6.7360 H         1 UNK         0.0786 
    103 H103       24.1306   -0.8697   -6.4055 H         1 UNK         0.0786 
    104 H104       24.4089   -4.0395   -4.4284 H         1 UNK         0.2977 
    105 H105       26.7405    0.2735   -5.2114 H         1 UNK         0.3127 
    106 H106       28.4530    1.8707   -7.0064 H         1 UNK         0.0770 
    107 H107       25.5713    2.7138   -6.3765 H         1 UNK         0.0814 
    108 H108       26.6517    3.4778   -7.5338 H         1 UNK         0.0814 
    109 H109       27.0092    3.5694   -5.8187 H         1 UNK         0.0814 
    110 H110       27.5829   -0.9541   -6.7996 H         1 UNK         0.2983 
    111 H111       25.6942   -1.5415   -8.8614 H         1 UNK         0.0947 
    112 H112       26.6713   -3.8530   -8.6970 H         1 UNK         0.0806 
    113 H113       26.2668   -3.1944   -7.1268 H         1 UNK         0.0806 
    114 H114       27.9492   -3.2397   -7.6602 H         1 UNK         0.0806 
    115 H115       29.0435   -0.5746   -9.0421 H         1 UNK         0.3000 
    116 H116       28.9294   -0.3871  -11.9001 H         1 UNK         0.0850 
    117 H117       31.0944   -1.6116  -12.2769 H         1 UNK         0.0810 
    118 H118       29.8689   -2.7194  -11.6843 H         1 UNK         0.0810 
    119 H119       31.1188   -2.1252  -10.5956 H         1 UNK         0.0810 
    120 H120       30.6337    1.0770  -12.6131 H         1 UNK         0.3040 
    121 H121       31.0827    3.1923  -10.7560 H         1 UNK         0.0766 
    122 H122       32.2605    4.2660  -12.6793 H         1 UNK         0.0812 
    123 H123       30.7190    3.5901  -13.1749 H         1 UNK         0.0812 
    124 H124       32.2200    2.7518  -13.5710 H         1 UNK         0.0812 
    125 H125       33.1815    0.5835  -11.8955 H         1 UNK         0.3205 
    126 H126       35.6882    1.6340  -11.1648 H         1 UNK         0.0754 
    127 H127       34.7776   -1.2889  -11.3764 H         1 UNK         0.0769 
    128 H128       36.4491   -0.7445  -11.3573 H         1 UNK         0.0769 
    129 H129       35.4050   -0.2978  -12.6950 H         1 UNK         0.0769 
    130 H130       33.2705    0.0441   -9.1586 H         1 UNK         0.2981 
    131 H131       35.0654    0.0778   -6.7974 H         1 UNK         0.0541 
    132 H132       33.1607    2.3824   -8.1506 H         1 UNK         0.3459 
    133 H133       32.4913    3.0325   -6.6742 H         1 UNK         0.3459 
    134 H134       33.3190   -1.4480   -5.7459 H         1 UNK         0.0612 
    135 H135       34.2782   -2.1104   -7.0237 H         1 UNK         0.0612 
    136 H136       29.7416   -1.4348   -7.2456 H         1 UNK         0.0624 
    137 H137       30.7824   -0.2658   -6.4818 H         1 UNK         0.0624 
@<TRIPOS>BOND
     1    1    2 1    
     2    1   72 1    
     3    1   73 1    
     4    1   74 1    
     5    2    3 2    
     6    2    4 am   BACKBONE|DICT|INTERRES
     7    4    5 1    
     8    4   75 1    
     9    5    6 1    
    10    5   35 1    
    11    5   76 1    
    12    6    7 1    
    13    6   77 1    
    14    6   78 1    
    15    7    8 1    
    16    8    9 1    
    17    8   79 1    
    18    8   80 1    
    19    9   10 ar   
    20    9   14 ar   
    21   10   11 ar   
    22   10   81 1    
    23   11   12 ar   
    24   11   71 1    
    25   12   13 ar   
    26   12   82 1    
    27   13   14 ar   
    28   13   15 1    
    29   14   83 1    
    30   15   16 1    
    31   15   84 1    
    32   15   85 1    
    33   16   17 1    
    34   17   18 1    
    35   17   86 1    
    36   17   87 1    
    37   18   19 1    
    38   18   37 1    
    39   18   88 1    
    40   19   20 am   BACKBONE|DICT|INTERRES
    41   19   89 1    
    42   20   21 2    
    43   20   22 1    
    44   22   23 1    
    45   22   24 1    
    46   22   90 1    
    47   23   91 1    
    48   23   92 1    
    49   23   93 1    
    50   24   25 am   BACKBONE|DICT|INTERRES
    51   24   94 1    
    52   25   26 2    
    53   25   27 1    
    54   27   28 1    
    55   27   29 1    
    56   27   95 1    
    57   28   96 1    
    58   28   97 1    
    59   28   98 1    
    60   29   30 am   BACKBONE|DICT|INTERRES
    61   29   99 1    
    62   30   31 2    
    63   30   32 1    
    64   32   33 1    
    65   32   34 1    
    66   32  100 1    
    67   33  101 1    
    68   33  102 1    
    69   33  103 1    
    70   34   35 am   BACKBONE|DICT|INTERRES
    71   34  104 1    
    72   35   36 2    
    73   37   38 2    
    74   37   39 am   BACKBONE|DICT|INTERRES
    75   39   40 1    
    76   39  105 1    
    77   40   41 1    
    78   40   42 1    
    79   40  106 1    
    80   41  107 1    
    81   41  108 1    
    82   41  109 1    
    83   42   43 2    
    84   42   44 am   BACKBONE|DICT|INTERRES
    85   44   45 1    
    86   44  110 1    
    87   45   46 1    
    88   45   47 1    
    89   45  111 1    
    90   46  112 1    
    91   46  113 1    
    92   46  114 1    
    93   47   48 2    
    94   47   49 am   BACKBONE|DICT|INTERRES
    95   49   50 1    
    96   49  115 1    
    97   50   51 1    
    98   50   52 1    
    99   50  116 1    
   100   51  117 1    
   101   51  118 1    
   102   51  119 1    
   103   52   53 2    
   104   52   54 am   BACKBONE|DICT|INTERRES
   105   54   55 1    
   106   54  120 1    
   107   55   56 1    
   108   55   57 1    
   109   55  121 1    
   110   56  122 1    
   111   56  123 1    
   112   56  124 1    
   113   57   58 2    
   114   57   59 am   BACKBONE|DICT|INTERRES
   115   59   60 1    
   116   59  125 1    
   117   60   61 1    
   118   60   62 1    
   119   60  126 1    
   120   61  127 1    
   121   61  128 1    
   122   61  129 1    
   123   62   63 2    
   124   62   64 am   BACKBONE|DICT|INTERRES
   125   64   65 1    
   126   64  130 1    
   127   65   66 1    
   128   65   69 1    
   129   65  131 1    
   130   66   67 am   BACKBONE|DICT|INTERRES
   131   66   68 2    
   132   67  132 1    
   133   67  133 1    
   134   69   70 1    
   135   69  134 1    
   136   69  135 1    
   137   70   71 1    
   138   71  136 1    
   139   71  137 1    
@<TRIPOS>SUBSTRUCTURE
     1 UNK         1 GROUP             0       ****    0 ROOT    
