@<TRIPOS>MOLECULE
3R137
137   139    1
SMALL
USER_CHARGES


@<TRIPOS>ATOM
      1 CA         27.6225   -7.7659   -1.1638 C.3       0 UNK        -0.2020 
      2 C          27.5908   -6.2565   -1.3481 C.2       0 UNK         0.4855 
      3 O          27.5593   -5.5174   -0.3629 O.2       0 UNK        -0.5197 
      4 N          27.5970   -5.7873   -2.6017 N.am      1 UNK        -0.4892 
      5 CA         27.5616   -4.3686   -2.9709 C.3       1 UNK         0.0835 
      6 C6         28.2036   -4.1090   -4.3615 C.3       12 UNK        -0.0855 
      7 S7         29.8700   -4.8243   -4.6050 S.3       12 UNK        -0.2931 
      8 C8         30.8818   -4.0544   -3.2971 C.3       12 UNK         0.0378 
      9 C9         30.8566   -2.5332   -3.3455 C.ar      12 UNK        -0.0802 
     10 C10        31.4461   -1.8429   -4.4097 C.ar      12 UNK        -0.0944 
     11 C11        31.4077   -0.4454   -4.4566 C.ar      12 UNK        -0.0787 
     12 C12        30.7878    0.2629   -3.4242 C.ar      12 UNK        -0.0862 
     13 C13        30.1775   -0.4187   -2.3698 C.ar      12 UNK        -0.0733 
     14 C14        30.2334   -1.8131   -2.3235 C.ar      12 UNK        -0.0832 
     15 C15        29.4043    0.3367   -1.3055 C.3       12 UNK         0.0240 
     16 S16        27.6275    0.3166   -1.6973 S.3       12 UNK        -0.2522 
     17 C17        27.4491    1.7523   -2.8083 C.3       12 UNK        -0.0967 
     18 CA         27.5027    1.4193   -4.3229 C.3       5 UNK         0.0660 
     19 N          26.5611    0.3697   -4.7263 N.am      5 UNK        -0.4015 
     20 C          26.4551   -0.1277   -5.9694 C.2       4 UNK         0.4946 
     21 O          27.2525    0.1306   -6.8745 O.2       4 UNK        -0.5353 
     22 CA         25.2272   -0.9991   -6.2945 C.3       4 UNK         0.0277 
     23 CB         25.6344   -2.3526   -6.8934 C.3       4 UNK        -0.1981 
     24 N          24.3162   -1.2104   -5.1644 N.am      4 UNK        -0.4209 
     25 C          23.4513   -0.2913   -4.7070 C.2       3 UNK         0.4942 
     26 O          23.4125    0.8645   -5.1326 O.2       3 UNK        -0.5208 
     27 CA         22.4706   -0.7096   -3.5955 C.3       3 UNK         0.0250 
     28 CB         21.0731   -0.9589   -4.1855 C.3       3 UNK        -0.1990 
     29 N          22.8945   -1.8998   -2.8537 N.am      3 UNK        -0.4232 
     30 C          23.8733   -1.9145   -1.9395 C.2       2 UNK         0.4993 
     31 O          24.4939   -0.9085   -1.5987 O.2       2 UNK        -0.5286 
     32 CA         24.2384   -3.2712   -1.3031 C.3       2 UNK         0.0209 
     33 CB         23.2332   -4.4057   -1.6094 C.3       2 UNK        -0.1931 
     34 N          25.5998   -3.6974   -1.6535 N.am      2 UNK        -0.4546 
     35 C          26.1124   -3.8385   -2.8849 C.2       1 UNK         0.5154 
     36 O          25.4721   -3.6174   -3.9149 O.2       1 UNK        -0.5181 
     37 C          27.2857    2.7125   -5.1363 C.2       5 UNK         0.5014 
     38 O          28.2607    3.3328   -5.5599 O.2       5 UNK        -0.5248 
     39 N          26.0122    3.0703   -5.3713 N.am      6 UNK        -0.4434 
     40 CA         25.6023    4.2301   -6.1690 C.3       6 UNK         0.0363 
     41 CB         24.1053    4.4944   -5.9423 C.3       6 UNK        -0.1936 
     42 C          25.8979    4.0685   -7.6707 C.2       6 UNK         0.5081 
     43 O          26.1204    5.0677   -8.3540 O.2       6 UNK        -0.5248 
     44 N          25.9116    2.8185   -8.1531 N.am      7 UNK        -0.4718 
     45 CA         26.2888    2.4564   -9.5219 C.3       7 UNK         0.0273 
     46 CB         25.6303    1.1128   -9.8806 C.3       7 UNK        -0.1935 
     47 C          27.8146    2.3761   -9.7194 C.2       7 UNK         0.5018 
     48 O          28.2605    2.3096  -10.8653 O.2       7 UNK        -0.5186 
     49 N          28.5750    2.3622   -8.6122 N.am      8 UNK        -0.4240 
     50 CA         30.0282    2.1876   -8.5202 C.3       8 UNK         0.0235 
     51 CB         30.7711    3.3926   -9.1354 C.3       8 UNK        -0.2000 
     52 C          30.4990    0.8347   -9.0883 C.2       8 UNK         0.4941 
     53 O          31.5507    0.7731   -9.7318 O.2       8 UNK        -0.5273 
     54 N          29.7107   -0.2241   -8.8436 N.am      9 UNK        -0.4262 
     55 CA         29.9231   -1.5816   -9.3545 C.3       9 UNK         0.0264 
     56 CB         28.7622   -2.4794   -8.9019 C.3       9 UNK        -0.1955 
     57 C          31.2796   -2.1690   -8.9303 C.2       9 UNK         0.5031 
     58 O          31.4574   -2.5009   -7.7596 O.2       9 UNK        -0.5390 
     59 N          32.2090   -2.2483   -9.8925 N.am      10 UNK        -0.4204 
     60 CA         33.6150   -2.6547   -9.7566 C.3       10 UNK         0.0237 
     61 CB         33.7482   -4.0789   -9.1740 C.3       10 UNK        -0.1985 
     62 C          34.5135   -1.6346   -9.0237 C.2       10 UNK         0.4970 
     63 O          35.6892   -1.9362   -8.8105 O.2       10 UNK        -0.4914 
     64 N          33.9877   -0.4459   -8.6988 N.am      11 UNK        -0.4285 
     65 CA         34.7668    0.7076   -8.2210 C.3       11 UNK         0.1007 
     66 C          35.0964    1.6864   -9.3797 C.2       11 UNK         0.5703 
     67 N          34.2234    1.8467  -10.3689 N.am      11 UNK        -0.7361 
     68 O          36.1609    2.2998   -9.3855 O.2       11 UNK        -0.4986 
     69 C69        34.0655    1.4690   -7.0673 C.3       12 UNK        -0.0947 
     70 S70        33.7815    0.4417   -5.5872 S.3       12 UNK        -0.2240 
     71 C71        31.9739    0.3009   -5.6515 C.3       12 UNK         0.0194 
     72 H72        27.6594   -8.2927   -2.1172 H         1 UNK         0.0906 
     73 H73        28.4985   -8.0540   -0.5833 H         1 UNK         0.0906 
     74 H74        26.7337   -8.0967   -0.6272 H         1 UNK         0.0906 
     75 H75        27.6162   -6.4346   -3.3773 H         1 UNK         0.3140 
     76 H76        28.1390   -3.8065   -2.2368 H         1 UNK         0.1085 
     77 H77        28.2571   -3.0362   -4.5593 H         1 UNK         0.0836 
     78 H78        27.5760   -4.5300   -5.1487 H         1 UNK         0.0836 
     79 H79        31.9123   -4.3946   -3.4083 H         1 UNK         0.0731 
     80 H80        30.5470   -4.4217   -2.3257 H         1 UNK         0.0731 
     81 H81        31.9157   -2.3946   -5.2127 H         1 UNK         0.1312 
     82 H82        30.7400    1.3426   -3.4641 H         1 UNK         0.1406 
     83 H83        29.7676   -2.3337   -1.4983 H         1 UNK         0.1631 
     84 H84        29.7665    1.3607   -1.2033 H         1 UNK         0.0717 
     85 H85        29.5568   -0.1383   -0.3352 H         1 UNK         0.0717 
     86 H86        26.4949    2.2212   -2.5588 H         1 UNK         0.0934 
     87 H87        28.2122    2.4914   -2.5562 H         1 UNK         0.0934 
     88 H88        28.4993    1.0523   -4.5669 H         1 UNK         0.0739 
     89 H89        25.8918    0.0765   -4.0288 H         1 UNK         0.3093 
     90 H90        24.6671   -0.4648   -7.0650 H         1 UNK         0.0818 
     91 H91        24.7797   -3.0199   -7.0037 H         1 UNK         0.0819 
     92 H92        26.0617   -2.2165   -7.8850 H         1 UNK         0.0819 
     93 H93        26.3807   -2.8574   -6.2830 H         1 UNK         0.0819 
     94 H94        24.3670   -2.1199   -4.7140 H         1 UNK         0.3041 
     95 H95        22.3991    0.1257   -2.8954 H         1 UNK         0.0784 
     96 H96        20.7122   -0.0785   -4.7196 H         1 UNK         0.0793 
     97 H97        21.0742   -1.7902   -4.8917 H         1 UNK         0.0793 
     98 H98        20.3458   -1.1813   -3.4043 H         1 UNK         0.0793 
     99 H99        22.4437   -2.7721   -3.0896 H         1 UNK         0.3024 
    100 H100       24.2305   -3.1058   -0.2244 H         1 UNK         0.1171 
    101 H101       23.4921   -5.3106   -1.0594 H         1 UNK         0.0786 
    102 H102       22.2213   -4.1318   -1.3071 H         1 UNK         0.0786 
    103 H103       23.2093   -4.6657   -2.6683 H         1 UNK         0.0786 
    104 H104       26.1975   -3.9559   -0.8758 H         1 UNK         0.2977 
    105 H105       25.2671    2.4880   -5.0102 H         1 UNK         0.3127 
    106 H106       26.1618    5.0992   -5.8159 H         1 UNK         0.0770 
    107 H107       23.4937    3.6459   -6.2528 H         1 UNK         0.0814 
    108 H108       23.7714    5.3633   -6.5113 H         1 UNK         0.0814 
    109 H109       23.8918    4.6951   -4.8923 H         1 UNK         0.0814 
    110 H110       25.7324    2.0553   -7.5170 H         1 UNK         0.2983 
    111 H111       25.9097    3.2174  -10.2078 H         1 UNK         0.0947 
    112 H112       24.5474    1.1556   -9.7639 H         1 UNK         0.0806 
    113 H113       26.0049    0.2979   -9.2606 H         1 UNK         0.0806 
    114 H114       25.8324    0.8463  -10.9190 H         1 UNK         0.0806 
    115 H115       28.0932    2.4102   -7.7235 H         1 UNK         0.3000 
    116 H116       30.2580    2.1698   -7.4551 H         1 UNK         0.0850 
    117 H117       30.4243    4.3324   -8.7059 H         1 UNK         0.0810 
    118 H118       30.6326    3.4453  -10.2157 H         1 UNK         0.0810 
    119 H119       31.8439    3.3300   -8.9510 H         1 UNK         0.0810 
    120 H120       28.8871   -0.0852   -8.2665 H         1 UNK         0.3040 
    121 H121       29.8926   -1.5272  -10.4446 H         1 UNK         0.0766 
    122 H122       28.9167   -3.5121   -9.2175 H         1 UNK         0.0812 
    123 H123       27.8224   -2.1449   -9.3395 H         1 UNK         0.0812 
    124 H124       28.6542   -2.4816   -7.8160 H         1 UNK         0.0812 
    125 H125       31.9539   -1.9091  -10.8106 H         1 UNK         0.3205 
    126 H126       33.9999   -2.6920  -10.7768 H         1 UNK         0.0754 
    127 H127       34.7740   -4.4403   -9.2561 H         1 UNK         0.0769 
    128 H128       33.1136   -4.7875   -9.7061 H         1 UNK         0.0769 
    129 H129       33.4801   -4.1140   -8.1177 H         1 UNK         0.0769 
    130 H130       33.0277   -0.2480   -8.9590 H         1 UNK         0.2981 
    131 H131       35.7246    0.3589   -7.8301 H         1 UNK         0.0541 
    132 H132       34.4435    2.4765  -11.1235 H         1 UNK         0.3459 
    133 H133       33.3133    1.3999  -10.3308 H         1 UNK         0.3459 
    134 H134       34.6755    2.3175   -6.7517 H         1 UNK         0.0612 
    135 H135       33.1205    1.8925   -7.4102 H         1 UNK         0.0612 
    136 H136       31.6862   -0.2072   -6.5699 H         1 UNK         0.0624 
    137 H137       31.5433    1.3015   -5.7010 H         1 UNK         0.0624 
@<TRIPOS>BOND
     1    1    2 1    
     2    1   72 1    
     3    1   73 1    
     4    1   74 1    
     5    2    3 2    
     6    2    4 am   BACKBONE|DICT|INTERRES
     7    4    5 1    
     8    4   75 1    
     9    5    6 1    
    10    5   35 1    
    11    5   76 1    
    12    6    7 1    
    13    6   77 1    
    14    6   78 1    
    15    7    8 1    
    16    8    9 1    
    17    8   79 1    
    18    8   80 1    
    19    9   10 ar   
    20    9   14 ar   
    21   10   11 ar   
    22   10   81 1    
    23   11   12 ar   
    24   11   71 1    
    25   12   13 ar   
    26   12   82 1    
    27   13   14 ar   
    28   13   15 1    
    29   14   83 1    
    30   15   16 1    
    31   15   84 1    
    32   15   85 1    
    33   16   17 1    
    34   17   18 1    
    35   17   86 1    
    36   17   87 1    
    37   18   19 1    
    38   18   37 1    
    39   18   88 1    
    40   19   20 am   BACKBONE|DICT|INTERRES
    41   19   89 1    
    42   20   21 2    
    43   20   22 1    
    44   22   23 1    
    45   22   24 1    
    46   22   90 1    
    47   23   91 1    
    48   23   92 1    
    49   23   93 1    
    50   24   25 am   BACKBONE|DICT|INTERRES
    51   24   94 1    
    52   25   26 2    
    53   25   27 1    
    54   27   28 1    
    55   27   29 1    
    56   27   95 1    
    57   28   96 1    
    58   28   97 1    
    59   28   98 1    
    60   29   30 am   BACKBONE|DICT|INTERRES
    61   29   99 1    
    62   30   31 2    
    63   30   32 1    
    64   32   33 1    
    65   32   34 1    
    66   32  100 1    
    67   33  101 1    
    68   33  102 1    
    69   33  103 1    
    70   34   35 am   BACKBONE|DICT|INTERRES
    71   34  104 1    
    72   35   36 2    
    73   37   38 2    
    74   37   39 am   BACKBONE|DICT|INTERRES
    75   39   40 1    
    76   39  105 1    
    77   40   41 1    
    78   40   42 1    
    79   40  106 1    
    80   41  107 1    
    81   41  108 1    
    82   41  109 1    
    83   42   43 2    
    84   42   44 am   BACKBONE|DICT|INTERRES
    85   44   45 1    
    86   44  110 1    
    87   45   46 1    
    88   45   47 1    
    89   45  111 1    
    90   46  112 1    
    91   46  113 1    
    92   46  114 1    
    93   47   48 2    
    94   47   49 am   BACKBONE|DICT|INTERRES
    95   49   50 1    
    96   49  115 1    
    97   50   51 1    
    98   50   52 1    
    99   50  116 1    
   100   51  117 1    
   101   51  118 1    
   102   51  119 1    
   103   52   53 2    
   104   52   54 am   BACKBONE|DICT|INTERRES
   105   54   55 1    
   106   54  120 1    
   107   55   56 1    
   108   55   57 1    
   109   55  121 1    
   110   56  122 1    
   111   56  123 1    
   112   56  124 1    
   113   57   58 2    
   114   57   59 am   BACKBONE|DICT|INTERRES
   115   59   60 1    
   116   59  125 1    
   117   60   61 1    
   118   60   62 1    
   119   60  126 1    
   120   61  127 1    
   121   61  128 1    
   122   61  129 1    
   123   62   63 2    
   124   62   64 am   BACKBONE|DICT|INTERRES
   125   64   65 1    
   126   64  130 1    
   127   65   66 1    
   128   65   69 1    
   129   65  131 1    
   130   66   67 am   BACKBONE|DICT|INTERRES
   131   66   68 2    
   132   67  132 1    
   133   67  133 1    
   134   69   70 1    
   135   69  134 1    
   136   69  135 1    
   137   70   71 1    
   138   71  136 1    
   139   71  137 1    
@<TRIPOS>SUBSTRUCTURE
     1 UNK         1 GROUP             0       ****    0 ROOT    
