@<TRIPOS>MOLECULE
3R137
137   139    1
SMALL
USER_CHARGES


@<TRIPOS>ATOM
      1 CA         26.9682   -1.7081    0.7041 C.3       0 UNK        -0.2020 
      2 C          26.9164   -0.5032   -0.2218 C.2       0 UNK         0.4855 
      3 O          25.9289    0.2328   -0.2154 O.2       0 UNK        -0.5197 
      4 N          27.9645   -0.2942   -1.0292 N.am      1 UNK        -0.4892 
      5 CA         28.0470    0.7757   -2.0282 C.3       1 UNK         0.0835 
      6 C6         29.4720    0.9284   -2.6240 C.3       12 UNK        -0.0855 
      7 S7         30.2328   -0.6284   -3.2072 S.3       12 UNK        -0.2931 
      8 C8         30.1091   -0.4007   -5.0061 C.3       12 UNK         0.0378 
      9 C9         30.3560   -1.6940   -5.7632 C.ar      12 UNK        -0.0802 
     10 C10        31.4208   -1.8050   -6.6584 C.ar      12 UNK        -0.0944 
     11 C11        31.5888   -2.9612   -7.4263 C.ar      12 UNK        -0.0787 
     12 C12        30.6879   -4.0215   -7.2820 C.ar      12 UNK        -0.0862 
     13 C13        29.6234   -3.9233   -6.3810 C.ar      12 UNK        -0.0733 
     14 C14        29.4711   -2.7623   -5.6188 C.ar      12 UNK        -0.0832 
     15 C15        28.6042   -5.0442   -6.2532 C.3       12 UNK         0.0240 
     16 S16        27.3438   -5.0195   -7.5750 S.3       12 UNK        -0.2522 
     17 C17        26.8402   -3.2661   -7.7043 C.3       12 UNK        -0.0967 
     18 CA         25.6167   -2.8532   -6.8427 C.3       5 UNK         0.0660 
     19 N          25.8413   -2.9090   -5.3968 N.am      5 UNK        -0.4015 
     20 C          25.4656   -3.9231   -4.6055 C.2       4 UNK         0.4946 
     21 O          24.9975   -4.9843   -5.0199 O.2       4 UNK        -0.5353 
     22 CA         25.5837   -3.7106   -3.0893 C.3       4 UNK         0.0277 
     23 CB         27.0452   -3.6970   -2.6088 C.3       4 UNK        -0.1981 
     24 N          24.9012   -2.4824   -2.6841 N.am      4 UNK        -0.4209 
     25 C          23.5852   -2.4052   -2.4307 C.2       3 UNK         0.4942 
     26 O          22.8297   -3.3778   -2.4494 O.2       3 UNK        -0.5208 
     27 CA         22.9961   -1.0254   -2.0872 C.3       3 UNK         0.0250 
     28 CB         22.7382   -0.9085   -0.5758 C.3       3 UNK        -0.1990 
     29 N          23.8486    0.0806   -2.5273 N.am      3 UNK        -0.4232 
     30 C          23.8844    0.5383   -3.7886 C.2       2 UNK         0.4993 
     31 O          23.1427    0.1284   -4.6817 O.2       2 UNK        -0.5286 
     32 CA         24.9170    1.6336   -4.1187 C.3       2 UNK         0.0209 
     33 CB         24.2480    3.0167   -4.0520 C.3       2 UNK        -0.1931 
     34 N          26.1027    1.6321   -3.2532 N.am      2 UNK        -0.4546 
     35 C          26.9493    0.6036   -3.1003 C.2       1 UNK         0.5154 
     36 O          26.8414   -0.4670   -3.7045 O.2       1 UNK        -0.5181 
     37 C          25.2394   -1.4041   -7.1710 C.2       5 UNK         0.5014 
     38 O          25.8890   -0.4842   -6.6688 O.2       5 UNK        -0.5248 
     39 N          24.2592   -1.2253   -8.0673 N.am      6 UNK        -0.4434 
     40 CA         23.7344    0.0741   -8.5108 C.3       6 UNK         0.0363 
     41 CB         22.5237   -0.1631   -9.4288 C.3       6 UNK        -0.1936 
     42 C          24.7590    0.9993   -9.1997 C.2       6 UNK         0.5081 
     43 O          24.4923    2.1944   -9.3268 O.2       6 UNK        -0.5248 
     44 N          25.9091    0.4476   -9.6164 N.am      7 UNK        -0.4718 
     45 CA         27.0703    1.1861  -10.1209 C.3       7 UNK         0.0273 
     46 CB         28.1368    0.1876  -10.6012 C.3       7 UNK        -0.1935 
     47 C          27.6738    2.1513   -9.0833 C.2       7 UNK         0.5018 
     48 O          28.1588    3.2138   -9.4724 O.2       7 UNK        -0.5186 
     49 N          27.6164    1.7684   -7.7956 N.am      8 UNK        -0.4240 
     50 CA         27.9797    2.5562   -6.6088 C.3       8 UNK         0.0235 
     51 CB         27.0001    3.7377   -6.4499 C.3       8 UNK        -0.2000 
     52 C          29.4476    3.0331   -6.5309 C.2       8 UNK         0.4941 
     53 O          29.7485    3.8883   -5.6963 O.2       8 UNK        -0.5273 
     54 N          30.3392    2.4932   -7.3698 N.am      9 UNK        -0.4262 
     55 CA         31.7339    2.9087   -7.5026 C.3       9 UNK         0.0264 
     56 CB         31.8143    4.1739   -8.3802 C.3       9 UNK        -0.1955 
     57 C          32.5571    1.7641   -8.1047 C.2       9 UNK         0.5031 
     58 O          31.9767    0.8037   -8.6172 O.2       9 UNK        -0.5390 
     59 N          33.8882    1.9120   -8.0369 N.am      10 UNK        -0.4204 
     60 CA         34.9275    0.9335   -8.3882 C.3       10 UNK         0.0237 
     61 CB         34.7923    0.4420   -9.8485 C.3       10 UNK        -0.1985 
     62 C          35.0215   -0.2038   -7.3501 C.2       10 UNK         0.4970 
     63 O          34.4947   -0.0614   -6.2444 O.2       10 UNK        -0.4914 
     64 N          35.7379   -1.2824   -7.6998 N.am      11 UNK        -0.4285 
     65 CA         36.0332   -2.4450   -6.8370 C.3       11 UNK         0.1007 
     66 C          36.9121   -2.1204   -5.5865 C.2       11 UNK         0.5703 
     67 N          37.6443   -1.0123   -5.5646 N.am      11 UNK        -0.7361 
     68 O          36.9685   -2.8975   -4.6360 O.2       11 UNK        -0.4986 
     69 C69        34.7658   -3.2837   -6.4922 C.3       12 UNK        -0.0947 
     70 S70        34.0656   -4.1347   -7.9467 S.3       12 UNK        -0.2240 
     71 C71        32.7084   -3.0342   -8.4536 C.3       12 UNK         0.0194 
     72 H72        27.8925   -2.2733    0.5865 H         1 UNK         0.0906 
     73 H73        26.1319   -2.3752    0.4961 H         1 UNK         0.0906 
     74 H74        26.8966   -1.3856    1.7424 H         1 UNK         0.0906 
     75 H75        28.7409   -0.9413   -1.0339 H         1 UNK         0.3140 
     76 H76        27.8352    1.7054   -1.4947 H         1 UNK         0.1085 
     77 H77        29.4817    1.6752   -3.4207 H         1 UNK         0.0836 
     78 H78        30.1319    1.3302   -1.8534 H         1 UNK         0.0836 
     79 H79        30.8110    0.3748   -5.3169 H         1 UNK         0.0731 
     80 H80        29.1109   -0.0445   -5.2609 H         1 UNK         0.0731 
     81 H81        32.1046   -0.9781   -6.7795 H         1 UNK         0.1312 
     82 H82        30.8020   -4.9111   -7.8864 H         1 UNK         0.1406 
     83 H83        28.6369   -2.6656   -4.9404 H         1 UNK         0.1631 
     84 H84        28.1059   -4.9953   -5.2859 H         1 UNK         0.0717 
     85 H85        29.1163   -6.0072   -6.2756 H         1 UNK         0.0717 
     86 H86        27.6847   -2.6019   -7.5292 H         1 UNK         0.0934 
     87 H87        26.5989   -3.1196   -8.7590 H         1 UNK         0.0934 
     88 H88        24.7693   -3.4923   -7.1008 H         1 UNK         0.0739 
     89 H89        26.1664   -2.0373   -4.9852 H         1 UNK         0.3093 
     90 H90        25.0996   -4.5617   -2.6047 H         1 UNK         0.0818 
     91 H91        27.0960   -3.7200   -1.5210 H         1 UNK         0.0819 
     92 H92        27.5854   -4.5728   -2.9691 H         1 UNK         0.0819 
     93 H93        27.5868   -2.8139   -2.9427 H         1 UNK         0.0819 
     94 H94        25.4459   -1.6286   -2.7258 H         1 UNK         0.3041 
     95 H95        22.0323   -0.9466   -2.5951 H         1 UNK         0.0784 
     96 H96        22.0255   -1.6651   -0.2450 H         1 UNK         0.0793 
     97 H97        23.6493   -1.0493    0.0056 H         1 UNK         0.0793 
     98 H98        22.3201    0.0644   -0.3168 H         1 UNK         0.0793 
     99 H99        24.4981    0.4540   -1.8434 H         1 UNK         0.3024 
    100 H100       25.2548    1.4602   -5.1414 H         1 UNK         0.1171 
    101 H101       24.9406    3.8152   -4.3152 H         1 UNK         0.0786 
    102 H102       23.4090    3.0760   -4.7470 H         1 UNK         0.0786 
    103 H103       23.8599    3.2285   -3.0548 H         1 UNK         0.0786 
    104 H104       26.2412    2.4604   -2.6919 H         1 UNK         0.2977 
    105 H105       23.8023   -2.0401   -8.4520 H         1 UNK         0.3127 
    106 H106       23.3883    0.6010   -7.6187 H         1 UNK         0.0770 
    107 H107       22.8014   -0.7134  -10.3286 H         1 UNK         0.0814 
    108 H108       22.0839    0.7827   -9.7488 H         1 UNK         0.0814 
    109 H109       21.7402   -0.7230   -8.9178 H         1 UNK         0.0814 
    110 H110       26.0241   -0.5459   -9.4869 H         1 UNK         0.2983 
    111 H111       26.7418    1.7831  -10.9745 H         1 UNK         0.0947 
    112 H112       28.4855   -0.4554   -9.7916 H         1 UNK         0.0806 
    113 H113       29.0087    0.7098  -10.9983 H         1 UNK         0.0806 
    114 H114       27.7540   -0.4510  -11.3975 H         1 UNK         0.0806 
    115 H115       27.1667    0.8804   -7.5921 H         1 UNK         0.3000 
    116 H116       27.8306    1.8918   -5.7579 H         1 UNK         0.0850 
    117 H117       25.9642    3.4116   -6.5397 H         1 UNK         0.0810 
    118 H118       27.1711    4.5047   -7.2060 H         1 UNK         0.0810 
    119 H119       27.1113    4.2127   -5.4746 H         1 UNK         0.0810 
    120 H120       30.0617    1.7511   -8.0000 H         1 UNK         0.3040 
    121 H121       32.1375    3.1234   -6.5106 H         1 UNK         0.0766 
    122 H122       32.8438    4.5109   -8.5049 H         1 UNK         0.0812 
    123 H123       31.2591    5.0010   -7.9373 H         1 UNK         0.0812 
    124 H124       31.4048    3.9950   -9.3754 H         1 UNK         0.0812 
    125 H125       34.2358    2.7416   -7.5760 H         1 UNK         0.3205 
    126 H126       35.8712    1.4763   -8.3171 H         1 UNK         0.0754 
    127 H127       35.6884   -0.0842  -10.1781 H         1 UNK         0.0769 
    128 H128       34.6497    1.2788  -10.5324 H         1 UNK         0.0769 
    129 H129       33.9496   -0.2368   -9.9783 H         1 UNK         0.0769 
    130 H130       36.1555   -1.3090   -8.6182 H         1 UNK         0.2981 
    131 H131       36.6804   -3.0851   -7.4375 H         1 UNK         0.0541 
    132 H132       38.2183   -0.8181   -4.7592 H         1 UNK         0.3459 
    133 H133       37.6298   -0.3712   -6.3407 H         1 UNK         0.3459 
    134 H134       35.0086   -4.0748   -5.7813 H         1 UNK         0.0612 
    135 H135       34.0090   -2.6734   -6.0005 H         1 UNK         0.0612 
    136 H136       32.3014   -3.3974   -9.3982 H         1 UNK         0.0624 
    137 H137       33.1052   -2.0411   -8.6610 H         1 UNK         0.0624 
@<TRIPOS>BOND
     1    1    2 1    
     2    1   72 1    
     3    1   73 1    
     4    1   74 1    
     5    2    3 2    
     6    2    4 am   BACKBONE|DICT|INTERRES
     7    4    5 1    
     8    4   75 1    
     9    5    6 1    
    10    5   35 1    
    11    5   76 1    
    12    6    7 1    
    13    6   77 1    
    14    6   78 1    
    15    7    8 1    
    16    8    9 1    
    17    8   79 1    
    18    8   80 1    
    19    9   10 ar   
    20    9   14 ar   
    21   10   11 ar   
    22   10   81 1    
    23   11   12 ar   
    24   11   71 1    
    25   12   13 ar   
    26   12   82 1    
    27   13   14 ar   
    28   13   15 1    
    29   14   83 1    
    30   15   16 1    
    31   15   84 1    
    32   15   85 1    
    33   16   17 1    
    34   17   18 1    
    35   17   86 1    
    36   17   87 1    
    37   18   19 1    
    38   18   37 1    
    39   18   88 1    
    40   19   20 am   BACKBONE|DICT|INTERRES
    41   19   89 1    
    42   20   21 2    
    43   20   22 1    
    44   22   23 1    
    45   22   24 1    
    46   22   90 1    
    47   23   91 1    
    48   23   92 1    
    49   23   93 1    
    50   24   25 am   BACKBONE|DICT|INTERRES
    51   24   94 1    
    52   25   26 2    
    53   25   27 1    
    54   27   28 1    
    55   27   29 1    
    56   27   95 1    
    57   28   96 1    
    58   28   97 1    
    59   28   98 1    
    60   29   30 am   BACKBONE|DICT|INTERRES
    61   29   99 1    
    62   30   31 2    
    63   30   32 1    
    64   32   33 1    
    65   32   34 1    
    66   32  100 1    
    67   33  101 1    
    68   33  102 1    
    69   33  103 1    
    70   34   35 am   BACKBONE|DICT|INTERRES
    71   34  104 1    
    72   35   36 2    
    73   37   38 2    
    74   37   39 am   BACKBONE|DICT|INTERRES
    75   39   40 1    
    76   39  105 1    
    77   40   41 1    
    78   40   42 1    
    79   40  106 1    
    80   41  107 1    
    81   41  108 1    
    82   41  109 1    
    83   42   43 2    
    84   42   44 am   BACKBONE|DICT|INTERRES
    85   44   45 1    
    86   44  110 1    
    87   45   46 1    
    88   45   47 1    
    89   45  111 1    
    90   46  112 1    
    91   46  113 1    
    92   46  114 1    
    93   47   48 2    
    94   47   49 am   BACKBONE|DICT|INTERRES
    95   49   50 1    
    96   49  115 1    
    97   50   51 1    
    98   50   52 1    
    99   50  116 1    
   100   51  117 1    
   101   51  118 1    
   102   51  119 1    
   103   52   53 2    
   104   52   54 am   BACKBONE|DICT|INTERRES
   105   54   55 1    
   106   54  120 1    
   107   55   56 1    
   108   55   57 1    
   109   55  121 1    
   110   56  122 1    
   111   56  123 1    
   112   56  124 1    
   113   57   58 2    
   114   57   59 am   BACKBONE|DICT|INTERRES
   115   59   60 1    
   116   59  125 1    
   117   60   61 1    
   118   60   62 1    
   119   60  126 1    
   120   61  127 1    
   121   61  128 1    
   122   61  129 1    
   123   62   63 2    
   124   62   64 am   BACKBONE|DICT|INTERRES
   125   64   65 1    
   126   64  130 1    
   127   65   66 1    
   128   65   69 1    
   129   65  131 1    
   130   66   67 am   BACKBONE|DICT|INTERRES
   131   66   68 2    
   132   67  132 1    
   133   67  133 1    
   134   69   70 1    
   135   69  134 1    
   136   69  135 1    
   137   70   71 1    
   138   71  136 1    
   139   71  137 1    
@<TRIPOS>SUBSTRUCTURE
     1 UNK         1 GROUP             0       ****    0 ROOT    
