@<TRIPOS>MOLECULE
3R137
137   139    1
SMALL
USER_CHARGES


@<TRIPOS>ATOM
      1 CA         27.5018   -6.1424    0.8843 C.3       0 UNK        -0.2020 
      2 C          27.2257   -4.7755    0.2772 C.2       0 UNK         0.4855 
      3 O          27.6733   -4.5111   -0.8369 O.2       0 UNK        -0.5197 
      4 N          26.4792   -3.9277    0.9998 N.am      1 UNK        -0.4892 
      5 CA         26.0725   -2.5371    0.7196 C.3       1 UNK         0.0835 
      6 C6         27.2340   -1.5038    0.8334 C.3       12 UNK        -0.0855 
      7 S7         28.1627   -1.1377   -0.6974 S.3       12 UNK        -0.2931 
      8 C8         29.7685   -1.9119   -0.3559 C.3       12 UNK         0.0378 
      9 C9         30.6183   -1.9909   -1.6152 C.ar      12 UNK        -0.0802 
     10 C10        31.6027   -1.0309   -1.8680 C.ar      12 UNK        -0.0944 
     11 C11        32.4264   -1.1361   -2.9939 C.ar      12 UNK        -0.0787 
     12 C12        32.2565   -2.2146   -3.8678 C.ar      12 UNK        -0.0862 
     13 C13        31.2512   -3.1606   -3.6466 C.ar      12 UNK        -0.0733 
     14 C14        30.4359   -3.0436   -2.5170 C.ar      12 UNK        -0.0832 
     15 C15        31.0754   -4.3304   -4.6058 C.3       12 UNK         0.0240 
     16 S16        30.5189   -3.8040   -6.2583 S.3       12 UNK        -0.2522 
     17 C17        28.7831   -3.3376   -5.9430 C.3       12 UNK        -0.0967 
     18 CA         28.2761   -2.2908   -6.9678 C.3       5 UNK         0.0660 
     19 N          26.8207   -2.2180   -7.0088 N.am      5 UNK        -0.4015 
     20 C          26.1163   -1.8837   -8.0991 C.2       4 UNK         0.4946 
     21 O          26.6157   -1.7036   -9.2090 O.2       4 UNK        -0.5353 
     22 CA         24.6015   -1.6699   -7.9149 C.3       4 UNK         0.0277 
     23 CB         23.8462   -2.9969   -8.0889 C.3       4 UNK        -0.1981 
     24 N          24.2598   -1.0775   -6.6204 N.am      4 UNK        -0.4209 
     25 C          24.7272    0.0949   -6.1658 C.2       3 UNK         0.4942 
     26 O          25.3997    0.8690   -6.8466 O.2       3 UNK        -0.5208 
     27 CA         24.4674    0.4247   -4.6844 C.3       3 UNK         0.0250 
     28 CB         23.2529    1.3549   -4.5459 C.3       3 UNK        -0.1990 
     29 N          24.2775   -0.7668   -3.8454 N.am      3 UNK        -0.4232 
     30 C          25.1965   -1.7262   -3.6618 C.2       2 UNK         0.4993 
     31 O          26.3332   -1.6857   -4.1425 O.2       2 UNK        -0.5286 
     32 CA         24.7447   -2.9733   -2.8882 C.3       2 UNK         0.0209 
     33 CB         25.0207   -4.2499   -3.7019 C.3       2 UNK        -0.1931 
     34 N          25.4377   -3.0667   -1.6096 N.am      2 UNK        -0.4546 
     35 C          25.1692   -2.3363   -0.5229 C.2       1 UNK         0.5154 
     36 O          24.2309   -1.5390   -0.4636 O.2       1 UNK        -0.5181 
     37 C          28.8488   -0.8864   -6.7111 C.2       5 UNK         0.5014 
     38 O          29.5744   -0.3626   -7.5557 O.2       5 UNK        -0.5248 
     39 N          28.5213   -0.3057   -5.5495 N.am      6 UNK        -0.4434 
     40 CA         29.1943    0.8805   -5.0178 C.3       6 UNK         0.0363 
     41 CB         28.7961    1.0779   -3.5510 C.3       6 UNK        -0.1936 
     42 C          28.9821    2.1794   -5.8091 C.2       6 UNK         0.5081 
     43 O          29.9075    2.9890   -5.8702 O.2       6 UNK        -0.5248 
     44 N          27.7851    2.3776   -6.3741 N.am      7 UNK        -0.4718 
     45 CA         27.4135    3.6050   -7.0778 C.3       7 UNK         0.0273 
     46 CB         26.0756    4.1393   -6.5356 C.3       7 UNK        -0.1935 
     47 C          27.3484    3.3779   -8.5904 C.2       7 UNK         0.5018 
     48 O          27.9981    4.1178   -9.3288 O.2       7 UNK        -0.5186 
     49 N          26.5718    2.3764   -9.0322 N.am      8 UNK        -0.4240 
     50 CA         26.3019    2.1357  -10.4549 C.3       8 UNK         0.0235 
     51 CB         25.0843    1.2161  -10.6293 C.3       8 UNK        -0.2000 
     52 C          27.5275    1.6020  -11.2128 C.2       8 UNK         0.4941 
     53 O          27.8953    2.1760  -12.2384 O.2       8 UNK        -0.5273 
     54 N          28.1593    0.5439  -10.6844 N.am      9 UNK        -0.4262 
     55 CA         29.4111   -0.0073  -11.2176 C.3       9 UNK         0.0264 
     56 CB         29.4908   -1.5088  -10.8966 C.3       9 UNK        -0.1955 
     57 C          30.6634    0.7267  -10.7006 C.2       9 UNK         0.5031 
     58 O          31.7642    0.4040  -11.1496 O.2       9 UNK        -0.5390 
     59 N          30.4903    1.6705   -9.7614 N.am      10 UNK        -0.4204 
     60 CA         31.5242    2.4826   -9.1052 C.3       10 UNK         0.0237 
     61 CB         32.0967    3.5197  -10.0943 C.3       10 UNK        -0.1985 
     62 C          32.6161    1.6316   -8.4232 C.2       10 UNK         0.4970 
     63 O          33.8039    1.9328   -8.5548 O.2       10 UNK        -0.4914 
     64 N          32.1814    0.5643   -7.7420 N.am      11 UNK        -0.4285 
     65 CA         32.9950   -0.4918   -7.1209 C.3       11 UNK         0.1007 
     66 C          33.6774   -1.4632   -8.1317 C.2       11 UNK         0.5703 
     67 N          33.4256   -1.3800   -9.4335 N.am      11 UNK        -0.7361 
     68 O          34.4318   -2.3429   -7.7234 O.2       11 UNK        -0.4986 
     69 C69        33.9879    0.0253   -6.0373 C.3       12 UNK        -0.0947 
     70 S70        33.1820    0.9502   -4.6835 S.3       12 UNK        -0.2240 
     71 C71        33.5217   -0.1053   -3.2363 C.3       12 UNK         0.0194 
     72 H72        27.0523   -6.2525    1.8710 H         1 UNK         0.0906 
     73 H73        27.1026   -6.9254    0.2401 H         1 UNK         0.0906 
     74 H74        28.5760   -6.2972    0.9821 H         1 UNK         0.0906 
     75 H75        26.1284   -4.2709    1.8840 H         1 UNK         0.3140 
     76 H76        25.4094   -2.3151    1.5581 H         1 UNK         0.1085 
     77 H77        26.8188   -0.5514    1.1679 H         1 UNK         0.0836 
     78 H78        27.9263   -1.8000    1.6229 H         1 UNK         0.0836 
     79 H79        29.6202   -2.9138    0.0476 H         1 UNK         0.0731 
     80 H80        30.2837   -1.3431    0.4196 H         1 UNK         0.0731 
     81 H81        31.7373   -0.2101   -1.1768 H         1 UNK         0.1312 
     82 H82        32.9044   -2.3213   -4.7255 H         1 UNK         0.1406 
     83 H83        29.6649   -3.7784   -2.3271 H         1 UNK         0.1631 
     84 H84        30.3720   -5.0634   -4.2076 H         1 UNK         0.0717 
     85 H85        32.0301   -4.8482   -4.7082 H         1 UNK         0.0717 
     86 H86        28.1877   -4.2489   -6.0180 H         1 UNK         0.0934 
     87 H87        28.6626   -2.9883   -4.9157 H         1 UNK         0.0934 
     88 H88        28.6219   -2.6143   -7.9513 H         1 UNK         0.0739 
     89 H89        26.3525   -2.2612   -6.1112 H         1 UNK         0.3093 
     90 H90        24.2602   -0.9807   -8.6877 H         1 UNK         0.0818 
     91 H91        22.7671   -2.8497   -8.0403 H         1 UNK         0.0819 
     92 H92        24.0660   -3.4442   -9.0594 H         1 UNK         0.0819 
     93 H93        24.1220   -3.7252   -7.3252 H         1 UNK         0.0819 
     94 H94        23.6914   -1.6348   -6.0004 H         1 UNK         0.3041 
     95 H95        25.3477    0.9533   -4.3130 H         1 UNK         0.0784 
     96 H96        23.3849    2.2595   -5.1415 H         1 UNK         0.0793 
     97 H97        22.3334    0.8742   -4.8823 H         1 UNK         0.0793 
     98 H98        23.1101    1.6694   -3.5118 H         1 UNK         0.0793 
     99 H99        23.3776   -0.8621   -3.3957 H         1 UNK         0.3024 
    100 H100       23.6701   -2.9150   -2.7007 H         1 UNK         0.1171 
    101 H101       26.0870   -4.3893   -3.8871 H         1 UNK         0.0786 
    102 H102       24.6562   -5.1358   -3.1816 H         1 UNK         0.0786 
    103 H103       24.5212   -4.2147   -4.6708 H         1 UNK         0.0786 
    104 H104       26.2752   -3.6458   -1.5701 H         1 UNK         0.2977 
    105 H105       27.8705   -0.7822   -4.9292 H         1 UNK         0.3127 
    106 H106       30.2656    0.6722   -5.0398 H         1 UNK         0.0770 
    107 H107       27.7162    1.1617   -3.4268 H         1 UNK         0.0814 
    108 H108       29.2503    1.9778   -3.1340 H         1 UNK         0.0814 
    109 H109       29.1431    0.2394   -2.9515 H         1 UNK         0.0814 
    110 H110       27.0787    1.6488   -6.3338 H         1 UNK         0.2983 
    111 H111       28.1591    4.3841   -6.9028 H         1 UNK         0.0947 
    112 H112       25.8104    5.0801   -7.0198 H         1 UNK         0.0806 
    113 H113       26.1341    4.3329   -5.4645 H         1 UNK         0.0806 
    114 H114       25.2508    3.4476   -6.7036 H         1 UNK         0.0806 
    115 H115       26.0809    1.8015   -8.3509 H         1 UNK         0.3000 
    116 H116       26.0405    3.0991  -10.8991 H         1 UNK         0.0850 
    117 H117       24.7766    1.1808  -11.6751 H         1 UNK         0.0810 
    118 H118       24.2294    1.5660  -10.0503 H         1 UNK         0.0810 
    119 H119       25.3024    0.1945  -10.3290 H         1 UNK         0.0810 
    120 H120       27.7611    0.0739   -9.8786 H         1 UNK         0.3040 
    121 H121       29.4076    0.0949  -12.3049 H         1 UNK         0.0766 
    122 H122       29.5907   -1.6870   -9.8277 H         1 UNK         0.0812 
    123 H123       30.3547   -1.9660  -11.3807 H         1 UNK         0.0812 
    124 H124       28.6048   -2.0396  -11.2453 H         1 UNK         0.0812 
    125 H125       29.5447    1.8268   -9.4435 H         1 UNK         0.3205 
    126 H126       31.0230    3.0322   -8.3079 H         1 UNK         0.0754 
    127 H127       32.7849    4.2012   -9.5927 H         1 UNK         0.0769 
    128 H128       31.3038    4.1259  -10.5327 H         1 UNK         0.0769 
    129 H129       32.6440    3.0426  -10.9081 H         1 UNK         0.0769 
    130 H130       31.1799    0.3739   -7.7294 H         1 UNK         0.2981 
    131 H131       32.2625   -1.1170   -6.6112 H         1 UNK         0.0541 
    132 H132       32.8218   -0.6604   -9.8154 H         1 UNK         0.3459 
    133 H133       33.8738   -2.0320  -10.0565 H         1 UNK         0.3459 
    134 H134       34.7430    0.6721   -6.4848 H         1 UNK         0.0612 
    135 H135       34.5451   -0.8075   -5.6072 H         1 UNK         0.0612 
    136 H136       33.6207    0.5461   -2.3668 H         1 UNK         0.0624 
    137 H137       34.4857   -0.6041   -3.3418 H         1 UNK         0.0624 
@<TRIPOS>BOND
     1    1    2 1    
     2    1   72 1    
     3    1   73 1    
     4    1   74 1    
     5    2    3 2    
     6    2    4 am   BACKBONE|DICT|INTERRES
     7    4    5 1    
     8    4   75 1    
     9    5    6 1    
    10    5   35 1    
    11    5   76 1    
    12    6    7 1    
    13    6   77 1    
    14    6   78 1    
    15    7    8 1    
    16    8    9 1    
    17    8   79 1    
    18    8   80 1    
    19    9   10 ar   
    20    9   14 ar   
    21   10   11 ar   
    22   10   81 1    
    23   11   12 ar   
    24   11   71 1    
    25   12   13 ar   
    26   12   82 1    
    27   13   14 ar   
    28   13   15 1    
    29   14   83 1    
    30   15   16 1    
    31   15   84 1    
    32   15   85 1    
    33   16   17 1    
    34   17   18 1    
    35   17   86 1    
    36   17   87 1    
    37   18   19 1    
    38   18   37 1    
    39   18   88 1    
    40   19   20 am   BACKBONE|DICT|INTERRES
    41   19   89 1    
    42   20   21 2    
    43   20   22 1    
    44   22   23 1    
    45   22   24 1    
    46   22   90 1    
    47   23   91 1    
    48   23   92 1    
    49   23   93 1    
    50   24   25 am   BACKBONE|DICT|INTERRES
    51   24   94 1    
    52   25   26 2    
    53   25   27 1    
    54   27   28 1    
    55   27   29 1    
    56   27   95 1    
    57   28   96 1    
    58   28   97 1    
    59   28   98 1    
    60   29   30 am   BACKBONE|DICT|INTERRES
    61   29   99 1    
    62   30   31 2    
    63   30   32 1    
    64   32   33 1    
    65   32   34 1    
    66   32  100 1    
    67   33  101 1    
    68   33  102 1    
    69   33  103 1    
    70   34   35 am   BACKBONE|DICT|INTERRES
    71   34  104 1    
    72   35   36 2    
    73   37   38 2    
    74   37   39 am   BACKBONE|DICT|INTERRES
    75   39   40 1    
    76   39  105 1    
    77   40   41 1    
    78   40   42 1    
    79   40  106 1    
    80   41  107 1    
    81   41  108 1    
    82   41  109 1    
    83   42   43 2    
    84   42   44 am   BACKBONE|DICT|INTERRES
    85   44   45 1    
    86   44  110 1    
    87   45   46 1    
    88   45   47 1    
    89   45  111 1    
    90   46  112 1    
    91   46  113 1    
    92   46  114 1    
    93   47   48 2    
    94   47   49 am   BACKBONE|DICT|INTERRES
    95   49   50 1    
    96   49  115 1    
    97   50   51 1    
    98   50   52 1    
    99   50  116 1    
   100   51  117 1    
   101   51  118 1    
   102   51  119 1    
   103   52   53 2    
   104   52   54 am   BACKBONE|DICT|INTERRES
   105   54   55 1    
   106   54  120 1    
   107   55   56 1    
   108   55   57 1    
   109   55  121 1    
   110   56  122 1    
   111   56  123 1    
   112   56  124 1    
   113   57   58 2    
   114   57   59 am   BACKBONE|DICT|INTERRES
   115   59   60 1    
   116   59  125 1    
   117   60   61 1    
   118   60   62 1    
   119   60  126 1    
   120   61  127 1    
   121   61  128 1    
   122   61  129 1    
   123   62   63 2    
   124   62   64 am   BACKBONE|DICT|INTERRES
   125   64   65 1    
   126   64  130 1    
   127   65   66 1    
   128   65   69 1    
   129   65  131 1    
   130   66   67 am   BACKBONE|DICT|INTERRES
   131   66   68 2    
   132   67  132 1    
   133   67  133 1    
   134   69   70 1    
   135   69  134 1    
   136   69  135 1    
   137   70   71 1    
   138   71  136 1    
   139   71  137 1    
@<TRIPOS>SUBSTRUCTURE
     1 UNK         1 GROUP             0       ****    0 ROOT    
