@<TRIPOS>MOLECULE
3R137
137   139    1
SMALL
USER_CHARGES


@<TRIPOS>ATOM
      1 CA         26.3811   -3.8308   -2.2242 C.3       0 UNK        -0.2020 
      2 C          26.5479   -4.0954   -0.7295 C.2       0 UNK         0.4855 
      3 O          25.9721   -5.0611   -0.2331 O.2       0 UNK        -0.5197 
      4 N          27.3146   -3.3065    0.0392 N.am      1 UNK        -0.4892 
      5 CA         28.0631   -2.0877   -0.3093 C.3       1 UNK         0.0835 
      6 C6         29.1913   -2.2916   -1.3572 C.3       12 UNK        -0.0855 
      7 S7         30.4336   -3.5118   -0.8065 S.3       12 UNK        -0.2931 
      8 C8         30.2538   -4.8448   -2.0427 C.3       12 UNK         0.0378 
      9 C9         30.5185   -4.3965   -3.4788 C.ar      12 UNK        -0.0802 
     10 C10        31.5832   -3.5380   -3.7807 C.ar      12 UNK        -0.0944 
     11 C11        31.8185   -3.1293   -5.0947 C.ar      12 UNK        -0.0787 
     12 C12        30.9851   -3.5965   -6.1124 C.ar      12 UNK        -0.0862 
     13 C13        29.9238   -4.4627   -5.8384 C.ar      12 UNK        -0.0733 
     14 C14        29.7026   -4.8666   -4.5157 C.ar      12 UNK        -0.0832 
     15 C15        29.0798   -4.9753   -7.0065 C.3       12 UNK         0.0240 
     16 S16        27.3121   -5.2684   -6.6505 S.3       12 UNK        -0.2522 
     17 C17        26.7241   -3.6639   -6.0192 C.3       12 UNK        -0.0967 
     18 CA         26.5540   -2.5630   -7.1082 C.3       5 UNK         0.0660 
     19 N          25.2976   -1.8267   -6.9195 N.am      5 UNK        -0.4015 
     20 C          24.8996   -0.7231   -7.5698 C.2       4 UNK         0.4946 
     21 O          25.4960   -0.2392   -8.5303 O.2       4 UNK        -0.5353 
     22 CA         23.6562    0.0095   -7.0307 C.3       4 UNK         0.0277 
     23 CB         22.4502   -0.2446   -7.9492 C.3       4 UNK        -0.1981 
     24 N          23.2855   -0.3083   -5.6441 N.am      4 UNK        -0.4209 
     25 C          24.0695   -0.1830   -4.5629 C.2       3 UNK         0.4942 
     26 O          25.2526    0.1699   -4.6020 O.2       3 UNK        -0.5208 
     27 CA         23.4298   -0.5787   -3.2274 C.3       3 UNK         0.0250 
     28 CB         23.1100   -2.0869   -3.1886 C.3       3 UNK        -0.1990 
     29 N          24.3386   -0.2271   -2.1402 N.am      3 UNK        -0.4232 
     30 C          23.9901   -0.0310   -0.8650 C.2       2 UNK         0.4993 
     31 O          22.8404   -0.1737   -0.4434 O.2       2 UNK        -0.5286 
     32 CA         25.1211    0.3715    0.1000 C.3       2 UNK         0.0209 
     33 CB         24.6022    0.7322    1.5055 C.3       2 UNK        -0.1931 
     34 N          26.1215   -0.6916    0.2252 N.am      2 UNK        -0.4546 
     35 C          27.1209   -0.9117   -0.6390 C.2       1 UNK         0.5154 
     36 O          27.2812   -0.2499   -1.6652 O.2       1 UNK        -0.5181 
     37 C          27.7790   -1.6233   -7.1139 C.2       5 UNK         0.5014 
     38 O          28.5911   -1.6699   -8.0404 O.2       5 UNK        -0.5248 
     39 N          27.8593   -0.7604   -6.0898 N.am      6 UNK        -0.4434 
     40 CA         28.9691    0.1693   -5.8976 C.3       6 UNK         0.0363 
     41 CB         28.9902    0.6522   -4.4409 C.3       6 UNK        -0.1936 
     42 C          28.9487    1.3557   -6.8699 C.2       6 UNK         0.5081 
     43 O          30.0116    1.9002   -7.1707 O.2       6 UNK        -0.5248 
     44 N          27.7567    1.7247   -7.3571 N.am      7 UNK        -0.4718 
     45 CA         27.5721    2.7392   -8.3941 C.3       7 UNK         0.0273 
     46 CB         26.1215    3.2481   -8.3765 C.3       7 UNK        -0.1935 
     47 C          27.9511    2.1950   -9.7794 C.2       7 UNK         0.5018 
     48 O          28.6468    2.8834  -10.5250 O.2       7 UNK        -0.5186 
     49 N          27.5191    0.9615  -10.0819 N.am      8 UNK        -0.4240 
     50 CA         27.8160    0.2416  -11.3225 C.3       8 UNK         0.0235 
     51 CB         26.9852   -1.0507  -11.3806 C.3       8 UNK        -0.2000 
     52 C          29.3120   -0.0646  -11.4916 C.2       8 UNK         0.4941 
     53 O          29.8523    0.1481  -12.5777 O.2       8 UNK        -0.5273 
     54 N          29.9592   -0.5301  -10.4138 N.am      9 UNK        -0.4262 
     55 CA         31.4048   -0.7729  -10.3694 C.3       9 UNK         0.0264 
     56 CB         31.7121   -1.7239   -9.2071 C.3       9 UNK        -0.1955 
     57 C          32.2411    0.5116  -10.2296 C.2       9 UNK         0.5031 
     58 O          33.4444    0.4688  -10.4889 O.2       9 UNK        -0.5390 
     59 N          31.6027    1.6092   -9.7984 N.am      10 UNK        -0.4204 
     60 CA         32.1769    2.9250   -9.4980 C.3       10 UNK         0.0237 
     61 CB         32.7454    3.5879  -10.7712 C.3       10 UNK        -0.1985 
     62 C          33.1788    2.9103   -8.3245 C.2       10 UNK         0.4970 
     63 O          34.0546    3.7758   -8.2660 O.2       10 UNK        -0.4914 
     64 N          33.0239    1.9513   -7.4009 N.am      11 UNK        -0.4285 
     65 CA         33.7704    1.8905   -6.1356 C.3       11 UNK         0.1007 
     66 C          33.1702    2.7978   -5.0217 C.2       11 UNK         0.5703 
     67 N          31.9328    3.2682   -5.1465 N.am      11 UNK        -0.7361 
     68 O          33.8475    3.0948   -4.0404 O.2       11 UNK        -0.4986 
     69 C69        34.0049    0.4298   -5.6608 C.3       12 UNK        -0.0947 
     70 S70        32.4807   -0.4581   -5.2005 S.3       12 UNK        -0.2240 
     71 C71        32.9747   -2.1922   -5.4159 C.3       12 UNK         0.0194 
     72 H72        25.4894   -4.3375   -2.5917 H         1 UNK         0.0906 
     73 H73        26.2750   -2.7746   -2.4599 H         1 UNK         0.0906 
     74 H74        27.2290   -4.2309   -2.7764 H         1 UNK         0.0906 
     75 H75        27.3952   -3.5650    1.0131 H         1 UNK         0.3140 
     76 H76        28.5593   -1.7829    0.6141 H         1 UNK         0.1085 
     77 H77        29.7258   -1.3531   -1.5166 H         1 UNK         0.0836 
     78 H78        28.7914   -2.5615   -2.3337 H         1 UNK         0.0836 
     79 H79        30.9545   -5.6433   -1.7961 H         1 UNK         0.0731 
     80 H80        29.2558   -5.2738   -1.9471 H         1 UNK         0.0731 
     81 H81        32.2285   -3.1788   -2.9909 H         1 UNK         0.1312 
     82 H82        31.1709   -3.2947   -7.1296 H         1 UNK         0.1406 
     83 H83        28.8967   -5.5529   -4.2945 H         1 UNK         0.1631 
     84 H84        29.5154   -5.9139   -7.3510 H         1 UNK         0.0717 
     85 H85        29.1442   -4.2883   -7.8513 H         1 UNK         0.0717 
     86 H86        25.7625   -3.8835   -5.5525 H         1 UNK         0.0934 
     87 H87        27.3586   -3.3443   -5.1901 H         1 UNK         0.0934 
     88 H88        26.4894   -3.0278   -8.0940 H         1 UNK         0.0739 
     89 H89        24.7146   -2.1373   -6.1582 H         1 UNK         0.3093 
     90 H90        23.8864    1.0764   -7.0603 H         1 UNK         0.0818 
     91 H91        21.5923    0.3616   -7.6576 H         1 UNK         0.0819 
     92 H92        22.6857    0.0114   -8.9836 H         1 UNK         0.0819 
     93 H93        22.1446   -1.2915   -7.9348 H         1 UNK         0.0819 
     94 H94        22.3336   -0.6173   -5.5048 H         1 UNK         0.3041 
     95 H95        22.5075   -0.0051   -3.1129 H         1 UNK         0.0784 
     96 H96        22.3372   -2.3470   -3.9126 H         1 UNK         0.0793 
     97 H97        23.9866   -2.6896   -3.4206 H         1 UNK         0.0793 
     98 H98        22.7420   -2.3959   -2.2100 H         1 UNK         0.0793 
     99 H99        25.3030   -0.0685   -2.4232 H         1 UNK         0.3024 
    100 H100       25.5958    1.2639   -0.3157 H         1 UNK         0.1171 
    101 H101       23.8692    1.5386    1.4563 H         1 UNK         0.0786 
    102 H102       25.4116    1.0728    2.1515 H         1 UNK         0.0786 
    103 H103       24.1206   -0.1177    1.9909 H         1 UNK         0.0786 
    104 H104       26.0177   -1.3183    1.0106 H         1 UNK         0.2977 
    105 H105       27.1044   -0.7136   -5.4144 H         1 UNK         0.3127 
    106 H106       29.8865   -0.3838   -6.0926 H         1 UNK         0.0770 
    107 H107       28.0654    1.1627   -4.1686 H         1 UNK         0.0814 
    108 H108       29.8140    1.3462   -4.2700 H         1 UNK         0.0814 
    109 H109       29.1276   -0.1828   -3.7541 H         1 UNK         0.0814 
    110 H110       26.9408    1.2006   -7.0748 H         1 UNK         0.2983 
    111 H111       28.2298    3.5835   -8.1741 H         1 UNK         0.0947 
    112 H112       25.9822    4.0441   -9.1092 H         1 UNK         0.0806 
    113 H113       25.8560    3.6562   -7.4012 H         1 UNK         0.0806 
    114 H114       25.4078    2.4597   -8.6164 H         1 UNK         0.0806 
    115 H115       26.9040    0.4869   -9.4220 H         1 UNK         0.3000 
    116 H116       27.5127    0.8802  -12.1549 H         1 UNK         0.0850 
    117 H117       27.1811   -1.6020  -12.3012 H         1 UNK         0.0810 
    118 H118       25.9169   -0.8351  -11.3519 H         1 UNK         0.0810 
    119 H119       27.2119   -1.7147  -10.5452 H         1 UNK         0.0810 
    120 H120       29.4281   -0.7506   -9.5739 H         1 UNK         0.3040 
    121 H121       31.7058   -1.2615  -11.2986 H         1 UNK         0.0766 
    122 H122       32.7771   -1.9545   -9.1551 H         1 UNK         0.0812 
    123 H123       31.1795   -2.6672   -9.3279 H         1 UNK         0.0812 
    124 H124       31.4233   -1.2861   -8.2504 H         1 UNK         0.0812 
    125 H125       30.6144    1.5246   -9.6023 H         1 UNK         0.3205 
    126 H126       31.3396    3.5376   -9.1601 H         1 UNK         0.0754 
    127 H127       33.0236    4.6254  -10.5825 H         1 UNK         0.0769 
    128 H128       32.0093    3.5932  -11.5753 H         1 UNK         0.0769 
    129 H129       33.6360    3.0738  -11.1336 H         1 UNK         0.0769 
    130 H130       32.2259    1.3358   -7.4760 H         1 UNK         0.2981 
    131 H131       34.7649    2.2983   -6.3261 H         1 UNK         0.0541 
    132 H132       31.3549    2.9839   -5.9275 H         1 UNK         0.3459 
    133 H133       31.5565    3.8644   -4.4275 H         1 UNK         0.3459 
    134 H134       34.6796    0.4145   -4.8031 H         1 UNK         0.0612 
    135 H135       34.5123   -0.1286   -6.4490 H         1 UNK         0.0612 
    136 H136       33.3155   -2.3479   -6.4406 H         1 UNK         0.0624 
    137 H137       33.8247   -2.4092   -4.7672 H         1 UNK         0.0624 
@<TRIPOS>BOND
     1    1    2 1    
     2    1   72 1    
     3    1   73 1    
     4    1   74 1    
     5    2    3 2    
     6    2    4 am   BACKBONE|DICT|INTERRES
     7    4    5 1    
     8    4   75 1    
     9    5    6 1    
    10    5   35 1    
    11    5   76 1    
    12    6    7 1    
    13    6   77 1    
    14    6   78 1    
    15    7    8 1    
    16    8    9 1    
    17    8   79 1    
    18    8   80 1    
    19    9   10 ar   
    20    9   14 ar   
    21   10   11 ar   
    22   10   81 1    
    23   11   12 ar   
    24   11   71 1    
    25   12   13 ar   
    26   12   82 1    
    27   13   14 ar   
    28   13   15 1    
    29   14   83 1    
    30   15   16 1    
    31   15   84 1    
    32   15   85 1    
    33   16   17 1    
    34   17   18 1    
    35   17   86 1    
    36   17   87 1    
    37   18   19 1    
    38   18   37 1    
    39   18   88 1    
    40   19   20 am   BACKBONE|DICT|INTERRES
    41   19   89 1    
    42   20   21 2    
    43   20   22 1    
    44   22   23 1    
    45   22   24 1    
    46   22   90 1    
    47   23   91 1    
    48   23   92 1    
    49   23   93 1    
    50   24   25 am   BACKBONE|DICT|INTERRES
    51   24   94 1    
    52   25   26 2    
    53   25   27 1    
    54   27   28 1    
    55   27   29 1    
    56   27   95 1    
    57   28   96 1    
    58   28   97 1    
    59   28   98 1    
    60   29   30 am   BACKBONE|DICT|INTERRES
    61   29   99 1    
    62   30   31 2    
    63   30   32 1    
    64   32   33 1    
    65   32   34 1    
    66   32  100 1    
    67   33  101 1    
    68   33  102 1    
    69   33  103 1    
    70   34   35 am   BACKBONE|DICT|INTERRES
    71   34  104 1    
    72   35   36 2    
    73   37   38 2    
    74   37   39 am   BACKBONE|DICT|INTERRES
    75   39   40 1    
    76   39  105 1    
    77   40   41 1    
    78   40   42 1    
    79   40  106 1    
    80   41  107 1    
    81   41  108 1    
    82   41  109 1    
    83   42   43 2    
    84   42   44 am   BACKBONE|DICT|INTERRES
    85   44   45 1    
    86   44  110 1    
    87   45   46 1    
    88   45   47 1    
    89   45  111 1    
    90   46  112 1    
    91   46  113 1    
    92   46  114 1    
    93   47   48 2    
    94   47   49 am   BACKBONE|DICT|INTERRES
    95   49   50 1    
    96   49  115 1    
    97   50   51 1    
    98   50   52 1    
    99   50  116 1    
   100   51  117 1    
   101   51  118 1    
   102   51  119 1    
   103   52   53 2    
   104   52   54 am   BACKBONE|DICT|INTERRES
   105   54   55 1    
   106   54  120 1    
   107   55   56 1    
   108   55   57 1    
   109   55  121 1    
   110   56  122 1    
   111   56  123 1    
   112   56  124 1    
   113   57   58 2    
   114   57   59 am   BACKBONE|DICT|INTERRES
   115   59   60 1    
   116   59  125 1    
   117   60   61 1    
   118   60   62 1    
   119   60  126 1    
   120   61  127 1    
   121   61  128 1    
   122   61  129 1    
   123   62   63 2    
   124   62   64 am   BACKBONE|DICT|INTERRES
   125   64   65 1    
   126   64  130 1    
   127   65   66 1    
   128   65   69 1    
   129   65  131 1    
   130   66   67 am   BACKBONE|DICT|INTERRES
   131   66   68 2    
   132   67  132 1    
   133   67  133 1    
   134   69   70 1    
   135   69  134 1    
   136   69  135 1    
   137   70   71 1    
   138   71  136 1    
   139   71  137 1    
@<TRIPOS>SUBSTRUCTURE
     1 UNK         1 GROUP             0       ****    0 ROOT    
