@<TRIPOS>MOLECULE
3R137
137   139    1
SMALL
USER_CHARGES


@<TRIPOS>ATOM
      1 CA         27.5594   -2.8880    2.7162 C.3       0 UNK        -0.2020 
      2 C          27.6170   -2.4629    1.2568 C.2       0 UNK         0.4855 
      3 O          27.7887   -1.2780    0.9711 O.2       0 UNK        -0.5197 
      4 N          27.4784   -3.4218    0.3316 N.am      1 UNK        -0.4892 
      5 CA         27.5112   -3.1999   -1.1211 C.3       1 UNK         0.0835 
      6 C6         27.6650   -4.5270   -1.9037 C.3       12 UNK        -0.0855 
      7 S7         29.1976   -5.4123   -1.4578 S.3       12 UNK        -0.2931 
      8 C8         30.1044   -5.4302   -3.0444 C.3       12 UNK         0.0378 
      9 C9         30.4493   -4.0523   -3.6113 C.ar      12 UNK        -0.0802 
     10 C10        30.5031   -3.8853   -4.9989 C.ar      12 UNK        -0.0944 
     11 C11        30.8614   -2.6550   -5.5554 C.ar      12 UNK        -0.0787 
     12 C12        31.1567   -1.5803   -4.7152 C.ar      12 UNK        -0.0862 
     13 C13        31.0644   -1.7127   -3.3269 C.ar      12 UNK        -0.0733 
     14 C14        30.7427   -2.9607   -2.7832 C.ar      12 UNK        -0.0832 
     15 C15        31.3157   -0.5235   -2.4015 C.3       12 UNK         0.0240 
     16 S16        30.5832    1.0513   -2.9804 S.3       12 UNK        -0.2522 
     17 C17        28.8200    0.6263   -3.2098 C.3       12 UNK        -0.0967 
     18 CA         28.3973    0.6214   -4.7069 C.3       5 UNK         0.0660 
     19 N          27.4033   -0.4228   -4.9877 N.am      5 UNK        -0.4015 
     20 C          27.1082   -0.8768   -6.2147 C.2       4 UNK         0.4946 
     21 O          27.6114   -0.4396   -7.2494 O.2       4 UNK        -0.5353 
     22 CA         26.0203   -1.9568   -6.3194 C.3       4 UNK         0.0277 
     23 CB         26.5959   -3.3336   -5.9555 C.3       4 UNK        -0.1981 
     24 N          24.8232   -1.6899   -5.5137 N.am      4 UNK        -0.4209 
     25 C          24.0724   -0.5808   -5.5561 C.2       3 UNK         0.4942 
     26 O          24.3546    0.4056   -6.2339 O.2       3 UNK        -0.5208 
     27 CA         22.8071   -0.5376   -4.6814 C.3       3 UNK         0.0250 
     28 CB         21.6750   -1.3948   -5.2811 C.3       3 UNK        -0.1990 
     29 N          23.0595   -0.8523   -3.2695 N.am      3 UNK        -0.4232 
     30 C          23.4495   -2.0166   -2.7341 C.2       2 UNK         0.4993 
     31 O          23.5498   -3.0752   -3.3606 O.2       2 UNK        -0.5286 
     32 CA         23.8441   -1.9738   -1.2488 C.3       2 UNK         0.0209 
     33 CB         22.7524   -2.6210   -0.3814 C.3       2 UNK        -0.1931 
     34 N          25.1271   -2.6322   -0.9821 N.am      2 UNK        -0.4546 
     35 C          26.2859   -2.4126   -1.6254 C.2       1 UNK         0.5154 
     36 O          26.4223   -1.6218   -2.5620 O.2       1 UNK        -0.5181 
     37 C          27.9844    2.0266   -5.2127 C.2       5 UNK         0.5014 
     38 O          28.8316    2.9188   -5.2669 O.2       5 UNK        -0.5248 
     39 N          26.7092    2.2137   -5.5844 N.am      6 UNK        -0.4434 
     40 CA         26.2124    3.4193   -6.2460 C.3       6 UNK         0.0363 
     41 CB         24.8516    3.8173   -5.6490 C.3       6 UNK        -0.1936 
     42 C          26.1036    3.1892   -7.7603 C.2       6 UNK         0.5081 
     43 O          26.6100    4.0015   -8.5332 O.2       6 UNK        -0.5248 
     44 N          25.4477    2.0898   -8.1568 N.am      7 UNK        -0.4718 
     45 CA         25.1225    1.7497   -9.5435 C.3       7 UNK         0.0273 
     46 CB         24.1326    0.5733   -9.5572 C.3       7 UNK        -0.1935 
     47 C          26.3462    1.4322  -10.4156 C.2       7 UNK         0.5018 
     48 O          26.3958    1.8820  -11.5612 O.2       7 UNK        -0.5186 
     49 N          27.3022    0.6708   -9.8681 N.am      8 UNK        -0.4240 
     50 CA         28.5416    0.2805  -10.5470 C.3       8 UNK         0.0235 
     51 CB         28.7462   -1.2330  -10.3693 C.3       8 UNK        -0.2000 
     52 C          29.7567    1.0758  -10.0361 C.2       8 UNK         0.4941 
     53 O          30.8727    0.8248  -10.4972 O.2       8 UNK        -0.5273 
     54 N          29.5274    2.0192   -9.1086 N.am      9 UNK        -0.4262 
     55 CA         30.5161    2.8760   -8.4488 C.3       9 UNK         0.0264 
     56 CB         31.0701    3.9236   -9.4424 C.3       9 UNK        -0.1955 
     57 C          31.5925    2.0354   -7.7348 C.2       9 UNK         0.5031 
     58 O          31.2435    1.1986   -6.9043 O.2       9 UNK        -0.5390 
     59 N          32.8705    2.2498   -8.0710 N.am      10 UNK        -0.4204 
     60 CA         34.0054    1.4963   -7.5328 C.3       10 UNK         0.0237 
     61 CB         35.2982    2.2846   -7.8046 C.3       10 UNK        -0.1985 
     62 C          34.1251    0.0602   -8.0816 C.2       10 UNK         0.4970 
     63 O          34.8496   -0.7308   -7.4775 O.2       10 UNK        -0.4914 
     64 N          33.4563   -0.2323   -9.2100 N.am      11 UNK        -0.4285 
     65 CA         33.4404   -1.5074   -9.9547 C.3       11 UNK         0.1007 
     66 C          34.8205   -2.1587  -10.2840 C.2       11 UNK         0.5703 
     67 N          35.9013   -1.3916  -10.3667 N.am      11 UNK        -0.7361 
     68 O          34.9144   -3.3622  -10.5158 O.2       11 UNK        -0.4986 
     69 C69        32.3455   -2.5021   -9.4677 C.3       12 UNK        -0.0947 
     70 S70        32.4913   -3.0782   -7.7434 S.3       12 UNK        -0.2240 
     71 C71        30.9160   -2.4770   -7.0628 C.3       12 UNK         0.0194 
     72 H72        27.4115   -3.9625    2.8235 H         1 UNK         0.0906 
     73 H73        28.4878   -2.6220    3.2210 H         1 UNK         0.0906 
     74 H74        26.7387   -2.3805    3.2225 H         1 UNK         0.0906 
     75 H75        27.3783   -4.3844    0.6227 H         1 UNK         0.3140 
     76 H76        28.3785   -2.5733   -1.3351 H         1 UNK         0.1085 
     77 H77        26.8177   -5.1886   -1.7134 H         1 UNK         0.0836 
     78 H78        27.6645   -4.3408   -2.9781 H         1 UNK         0.0836 
     79 H79        29.5135   -5.9969   -3.7660 H         1 UNK         0.0731 
     80 H80        31.0328   -5.9853   -2.9050 H         1 UNK         0.0731 
     81 H81        30.2825   -4.7186   -5.6523 H         1 UNK         0.1312 
     82 H82        31.4366   -0.6293   -5.1458 H         1 UNK         0.1406 
     83 H83        30.7149   -3.0796   -1.7089 H         1 UNK         0.1631 
     84 H84        32.3923   -0.3884   -2.2920 H         1 UNK         0.0717 
     85 H85        30.9266   -0.7298   -1.4030 H         1 UNK         0.0717 
     86 H86        28.6642   -0.3567   -2.7659 H         1 UNK         0.0934 
     87 H87        28.2031    1.3077   -2.6209 H         1 UNK         0.0934 
     88 H88        29.2698    0.3519   -5.3031 H         1 UNK         0.0739 
     89 H89        26.9406   -0.8392   -4.1813 H         1 UNK         0.3093 
     90 H90        25.6992   -1.9902   -7.3624 H         1 UNK         0.0818 
     91 H91        27.4787   -3.5607   -6.5552 H         1 UNK         0.0819 
     92 H92        26.8939   -3.3753   -4.9087 H         1 UNK         0.0819 
     93 H93        25.8705   -4.1281   -6.1308 H         1 UNK         0.0819 
     94 H94        24.5195   -2.4208   -4.8747 H         1 UNK         0.3041 
     95 H95        22.4622    0.4979   -4.6905 H         1 UNK         0.0784 
     96 H96        21.4362   -1.0651   -6.2932 H         1 UNK         0.0793 
     97 H97        21.9416   -2.4502   -5.3423 H         1 UNK         0.0793 
     98 H98        20.7625   -1.3140   -4.6905 H         1 UNK         0.0793 
     99 H99        23.0275   -0.0494   -2.6559 H         1 UNK         0.3024 
    100 H100       23.9557   -0.9312   -0.9437 H         1 UNK         0.1171 
    101 H101       21.7878   -2.1369   -0.5406 H         1 UNK         0.0786 
    102 H102       22.6279   -3.6793   -0.6156 H         1 UNK         0.0786 
    103 H103       22.9839   -2.5361    0.6806 H         1 UNK         0.0786 
    104 H104       25.1365   -3.3055   -0.2304 H         1 UNK         0.2977 
    105 H105       26.0723    1.4262   -5.5541 H         1 UNK         0.3127 
    106 H106       26.8979    4.2541   -6.0848 H         1 UNK         0.0770 
    107 H107       24.1011    3.0366   -5.7745 H         1 UNK         0.0814 
    108 H108       24.4664    4.7182   -6.1284 H         1 UNK         0.0814 
    109 H109       24.9365    4.0294   -4.5832 H         1 UNK         0.0814 
    110 H110       25.0570    1.4724   -7.4453 H         1 UNK         0.2983 
    111 H111       24.6248    2.6159   -9.9850 H         1 UNK         0.0947 
    112 H112       23.8509    0.3094  -10.5776 H         1 UNK         0.0806 
    113 H113       23.2160    0.8206   -9.0214 H         1 UNK         0.0806 
    114 H114       24.5587   -0.3175   -9.0938 H         1 UNK         0.0806 
    115 H115       27.2023    0.3434   -8.9079 H         1 UNK         0.3000 
    116 H116       28.4646    0.4798  -11.6177 H         1 UNK         0.0850 
    117 H117       29.5801   -1.5842  -10.9773 H         1 UNK         0.0810 
    118 H118       27.8648   -1.7926  -10.6825 H         1 UNK         0.0810 
    119 H119       28.9564   -1.4929   -9.3315 H         1 UNK         0.0810 
    120 H120       28.5759    2.1269   -8.7881 H         1 UNK         0.3040 
    121 H121       29.9823    3.4156   -7.6656 H         1 UNK         0.0766 
    122 H122       30.2597    4.5101   -9.8759 H         1 UNK         0.0812 
    123 H123       31.6168    3.4657  -10.2677 H         1 UNK         0.0812 
    124 H124       31.7367    4.6296   -8.9453 H         1 UNK         0.0812 
    125 H125       33.0734    2.9494   -8.7702 H         1 UNK         0.3205 
    126 H126       33.8777    1.4163   -6.4509 H         1 UNK         0.0754 
    127 H127       36.1650    1.7708   -7.3862 H         1 UNK         0.0769 
    128 H128       35.2625    3.2748   -7.3497 H         1 UNK         0.0769 
    129 H129       35.4787    2.4107   -8.8729 H         1 UNK         0.0769 
    130 H130       32.8535    0.4807   -9.6019 H         1 UNK         0.2981 
    131 H131       33.1022   -1.1994  -10.9447 H         1 UNK         0.0541 
    132 H132       36.7884   -1.8126  -10.5930 H         1 UNK         0.3459 
    133 H133       35.8421   -0.4033  -10.1835 H         1 UNK         0.3459 
    134 H134       32.3061   -3.3794  -10.1153 H         1 UNK         0.0612 
    135 H135       31.3759   -2.0227   -9.5875 H         1 UNK         0.0612 
    136 H136       30.7851   -1.4248   -7.3213 H         1 UNK         0.0624 
    137 H137       30.0897   -3.0141   -7.5307 H         1 UNK         0.0624 
@<TRIPOS>BOND
     1    1    2 1    
     2    1   72 1    
     3    1   73 1    
     4    1   74 1    
     5    2    3 2    
     6    2    4 am   BACKBONE|DICT|INTERRES
     7    4    5 1    
     8    4   75 1    
     9    5    6 1    
    10    5   35 1    
    11    5   76 1    
    12    6    7 1    
    13    6   77 1    
    14    6   78 1    
    15    7    8 1    
    16    8    9 1    
    17    8   79 1    
    18    8   80 1    
    19    9   10 ar   
    20    9   14 ar   
    21   10   11 ar   
    22   10   81 1    
    23   11   12 ar   
    24   11   71 1    
    25   12   13 ar   
    26   12   82 1    
    27   13   14 ar   
    28   13   15 1    
    29   14   83 1    
    30   15   16 1    
    31   15   84 1    
    32   15   85 1    
    33   16   17 1    
    34   17   18 1    
    35   17   86 1    
    36   17   87 1    
    37   18   19 1    
    38   18   37 1    
    39   18   88 1    
    40   19   20 am   BACKBONE|DICT|INTERRES
    41   19   89 1    
    42   20   21 2    
    43   20   22 1    
    44   22   23 1    
    45   22   24 1    
    46   22   90 1    
    47   23   91 1    
    48   23   92 1    
    49   23   93 1    
    50   24   25 am   BACKBONE|DICT|INTERRES
    51   24   94 1    
    52   25   26 2    
    53   25   27 1    
    54   27   28 1    
    55   27   29 1    
    56   27   95 1    
    57   28   96 1    
    58   28   97 1    
    59   28   98 1    
    60   29   30 am   BACKBONE|DICT|INTERRES
    61   29   99 1    
    62   30   31 2    
    63   30   32 1    
    64   32   33 1    
    65   32   34 1    
    66   32  100 1    
    67   33  101 1    
    68   33  102 1    
    69   33  103 1    
    70   34   35 am   BACKBONE|DICT|INTERRES
    71   34  104 1    
    72   35   36 2    
    73   37   38 2    
    74   37   39 am   BACKBONE|DICT|INTERRES
    75   39   40 1    
    76   39  105 1    
    77   40   41 1    
    78   40   42 1    
    79   40  106 1    
    80   41  107 1    
    81   41  108 1    
    82   41  109 1    
    83   42   43 2    
    84   42   44 am   BACKBONE|DICT|INTERRES
    85   44   45 1    
    86   44  110 1    
    87   45   46 1    
    88   45   47 1    
    89   45  111 1    
    90   46  112 1    
    91   46  113 1    
    92   46  114 1    
    93   47   48 2    
    94   47   49 am   BACKBONE|DICT|INTERRES
    95   49   50 1    
    96   49  115 1    
    97   50   51 1    
    98   50   52 1    
    99   50  116 1    
   100   51  117 1    
   101   51  118 1    
   102   51  119 1    
   103   52   53 2    
   104   52   54 am   BACKBONE|DICT|INTERRES
   105   54   55 1    
   106   54  120 1    
   107   55   56 1    
   108   55   57 1    
   109   55  121 1    
   110   56  122 1    
   111   56  123 1    
   112   56  124 1    
   113   57   58 2    
   114   57   59 am   BACKBONE|DICT|INTERRES
   115   59   60 1    
   116   59  125 1    
   117   60   61 1    
   118   60   62 1    
   119   60  126 1    
   120   61  127 1    
   121   61  128 1    
   122   61  129 1    
   123   62   63 2    
   124   62   64 am   BACKBONE|DICT|INTERRES
   125   64   65 1    
   126   64  130 1    
   127   65   66 1    
   128   65   69 1    
   129   65  131 1    
   130   66   67 am   BACKBONE|DICT|INTERRES
   131   66   68 2    
   132   67  132 1    
   133   67  133 1    
   134   69   70 1    
   135   69  134 1    
   136   69  135 1    
   137   70   71 1    
   138   71  136 1    
   139   71  137 1    
@<TRIPOS>SUBSTRUCTURE
     1 UNK         1 GROUP             0       ****    0 ROOT    
