@<TRIPOS>MOLECULE
3R137
137   139    1
SMALL
USER_CHARGES


@<TRIPOS>ATOM
      1 CA         28.6058   -0.0295    0.2027 C.3       0 UNK        -0.2020 
      2 C          28.2757   -1.2127   -0.6935 C.2       0 UNK         0.4855 
      3 O          27.9399   -1.0193   -1.8614 O.2       0 UNK        -0.5197 
      4 N          28.3624   -2.4366   -0.1577 N.am      1 UNK        -0.4892 
      5 CA         28.1299   -3.6923   -0.8803 C.3       1 UNK         0.0835 
      6 C6         28.9144   -4.8849   -0.2634 C.3       12 UNK        -0.0855 
      7 S7         30.6956   -4.5714   -0.0095 S.3       12 UNK        -0.2931 
      8 C8         31.4107   -5.0605   -1.6133 C.3       12 UNK         0.0378 
      9 C9         31.1541   -4.0116   -2.6858 C.ar      12 UNK        -0.0802 
     10 C10        31.7091   -2.7353   -2.5578 C.ar      12 UNK        -0.0944 
     11 C11        31.4675   -1.7450   -3.5135 C.ar      12 UNK        -0.0787 
     12 C12        30.6538   -2.0500   -4.6134 C.ar      12 UNK        -0.0862 
     13 C13        30.1084   -3.3305   -4.7651 C.ar      12 UNK        -0.0733 
     14 C14        30.3649   -4.3085   -3.8002 C.ar      12 UNK        -0.0832 
     15 C15        29.2729   -3.6717   -5.9910 C.3       12 UNK         0.0240 
     16 S16        27.5061   -3.9246   -5.6214 S.3       12 UNK        -0.2522 
     17 C17        26.9630   -2.2920   -5.0192 C.3       12 UNK        -0.0967 
     18 CA         26.5388   -1.3115   -6.1445 C.3       5 UNK         0.0660 
     19 N          25.3854   -0.4743   -5.7748 N.am      5 UNK        -0.4015 
     20 C          24.7618    0.3623   -6.6248 C.2       4 UNK         0.4946 
     21 O          25.0979    0.4925   -7.8040 O.2       4 UNK        -0.5353 
     22 CA         23.6205    1.2496   -6.0822 C.3       4 UNK         0.0277 
     23 CB         22.5248    1.5086   -7.1395 C.3       4 UNK        -0.1981 
     24 N          23.0362    0.7962   -4.8142 N.am      4 UNK        -0.4209 
     25 C          22.3442   -0.3295   -4.5904 C.2       3 UNK         0.4942 
     26 O          22.0720   -1.1697   -5.4500 O.2       3 UNK        -0.5208 
     27 CA         21.9234   -0.5761   -3.1303 C.3       3 UNK         0.0250 
     28 CB         20.4016   -0.7692   -3.0171 C.3       3 UNK        -0.1990 
     29 N          22.6068   -1.7417   -2.5637 N.am      3 UNK        -0.4232 
     30 C          23.9362   -1.8857   -2.4794 C.2       2 UNK         0.4993 
     31 O          24.7436   -1.0201   -2.8336 O.2       2 UNK        -0.5286 
     32 CA         24.4435   -3.2299   -1.9426 C.3       2 UNK         0.0209 
     33 CB         24.1292   -4.3766   -2.9283 C.3       2 UNK        -0.1931 
     34 N          25.8840   -3.1385   -1.7080 N.am      2 UNK        -0.4546 
     35 C          26.6180   -3.9928   -0.9892 C.2       1 UNK         0.5154 
     36 O          26.1375   -4.9685   -0.4080 O.2       1 UNK        -0.5181 
     37 C          27.7329   -0.4511   -6.5930 C.2       5 UNK         0.5014 
     38 O          28.3343   -0.7325   -7.6286 O.2       5 UNK        -0.5248 
     39 N          28.0241    0.6101   -5.8270 N.am      6 UNK        -0.4434 
     40 CA         29.0969    1.5615   -6.1126 C.3       6 UNK         0.0363 
     41 CB         29.2572    2.5336   -4.9339 C.3       6 UNK        -0.1936 
     42 C          28.9077    2.3215   -7.4319 C.2       6 UNK         0.5081 
     43 O          29.8826    2.5122   -8.1570 O.2       6 UNK        -0.5248 
     44 N          27.6599    2.6996   -7.7401 N.am      7 UNK        -0.4718 
     45 CA         27.2865    3.3503   -8.9977 C.3       7 UNK         0.0273 
     46 CB         25.8490    3.8852   -8.8945 C.3       7 UNK        -0.1935 
     47 C          27.4375    2.4186  -10.2120 C.2       7 UNK         0.5018 
     48 O          27.8504    2.8797  -11.2766 O.2       7 UNK        -0.5186 
     49 N          27.1116    1.1319  -10.0279 N.am      8 UNK        -0.4240 
     50 CA         27.2536    0.0918  -11.0444 C.3       8 UNK         0.0235 
     51 CB         26.3989   -1.1264  -10.6548 C.3       8 UNK        -0.2000 
     52 C          28.7187   -0.3155  -11.2746 C.2       8 UNK         0.4941 
     53 O          29.1582   -0.3578  -12.4246 O.2       8 UNK        -0.5273 
     54 N          29.4363   -0.6384  -10.1900 N.am      9 UNK        -0.4262 
     55 CA         30.7814   -1.2163  -10.2420 C.3       9 UNK         0.0264 
     56 CB         31.0201   -2.0623   -8.9811 C.3       9 UNK        -0.1955 
     57 C          31.9104   -0.1880  -10.3981 C.2       9 UNK         0.5031 
     58 O          32.9640   -0.5577  -10.9190 O.2       9 UNK        -0.5390 
     59 N          31.7046    1.0493   -9.9171 N.am      10 UNK        -0.4204 
     60 CA         32.7147    2.1110   -9.7863 C.3       10 UNK         0.0237 
     61 CB         33.1784    2.6169  -11.1699 C.3       10 UNK        -0.1985 
     62 C          33.8785    1.6889   -8.8636 C.2       10 UNK         0.4970 
     63 O          35.0468    1.8682   -9.2144 O.2       10 UNK        -0.4914 
     64 N          33.5246    1.1021   -7.7120 N.am      11 UNK        -0.4285 
     65 CA         34.4457    0.6160   -6.6735 C.3       11 UNK         0.1007 
     66 C          35.3107    1.7332   -6.0196 C.2       11 UNK         0.5703 
     67 N          36.4538    1.3736   -5.4505 N.am      11 UNK        -0.7361 
     68 O          34.9491    2.9089   -5.9973 O.2       11 UNK        -0.4986 
     69 C69        33.6979   -0.2464   -5.6172 C.3       12 UNK        -0.0947 
     70 S70        32.3461    0.6475   -4.7795 S.3       12 UNK        -0.2240 
     71 C71        32.0663   -0.3560   -3.2830 C.3       12 UNK         0.0194 
     72 H72        28.8888   -0.3439    1.2071 H         1 UNK         0.0906 
     73 H73        29.4333    0.5392   -0.2209 H         1 UNK         0.0906 
     74 H74        27.7433    0.6316    0.2828 H         1 UNK         0.0906 
     75 H75        28.6351   -2.5403    0.8094 H         1 UNK         0.3140 
     76 H76        28.4863   -3.5637   -1.9037 H         1 UNK         0.1085 
     77 H77        28.7969   -5.7766   -0.8822 H         1 UNK         0.0836 
     78 H78        28.5006   -5.1439    0.7132 H         1 UNK         0.0836 
     79 H79        31.0217   -6.0361   -1.9087 H         1 UNK         0.0731 
     80 H80        32.4879   -5.1844   -1.4938 H         1 UNK         0.0731 
     81 H81        32.3175   -2.5085   -1.6927 H         1 UNK         0.1312 
     82 H82        30.4447   -1.2952   -5.3573 H         1 UNK         0.1406 
     83 H83        29.9400   -5.2966   -3.9162 H         1 UNK         0.1631 
     84 H84        29.6653   -4.5839   -6.4425 H         1 UNK         0.0717 
     85 H85        29.3723   -2.9007   -6.7508 H         1 UNK         0.0717 
     86 H86        26.1033   -2.5076   -4.3925 H         1 UNK         0.0934 
     87 H87        27.7081   -1.8673   -4.3440 H         1 UNK         0.0934 
     88 H88        26.2183   -1.8948   -7.0106 H         1 UNK         0.0739 
     89 H89        25.0698   -0.5296   -4.8112 H         1 UNK         0.3093 
     90 H90        24.0856    2.2117   -5.8624 H         1 UNK         0.0818 
     91 H91        21.7391    2.1548   -6.7483 H         1 UNK         0.0819 
     92 H92        22.9363    2.0016   -8.0208 H         1 UNK         0.0819 
     93 H93        22.0608    0.5817   -7.4778 H         1 UNK         0.0819 
     94 H94        23.2298    1.3894   -4.0183 H         1 UNK         0.3041 
     95 H95        22.1985    0.2924   -2.5280 H         1 UNK         0.0784 
     96 H96        19.8687    0.0904   -3.4259 H         1 UNK         0.0793 
     97 H97        20.0635   -1.6511   -3.5630 H         1 UNK         0.0793 
     98 H98        20.0902   -0.8774   -1.9779 H         1 UNK         0.0793 
     99 H99        22.0165   -2.5102   -2.2802 H         1 UNK         0.3024 
    100 H100       23.9472   -3.4198   -0.9882 H         1 UNK         0.1171 
    101 H101       24.4566   -5.3410   -2.5401 H         1 UNK         0.0786 
    102 H102       23.0577   -4.4606   -3.1129 H         1 UNK         0.0786 
    103 H103       24.6127   -4.2284   -3.8939 H         1 UNK         0.0786 
    104 H104       26.3260   -2.2956   -2.0709 H         1 UNK         0.2977 
    105 H105       27.4842    0.7658   -4.9878 H         1 UNK         0.3127 
    106 H106       30.0132    0.9835   -6.2198 H         1 UNK         0.0770 
    107 H107       28.3568    3.1266   -4.7700 H         1 UNK         0.0814 
    108 H108       30.0789    3.2284   -5.1136 H         1 UNK         0.0814 
    109 H109       29.4840    2.0010   -4.0099 H         1 UNK         0.0814 
    110 H110       26.9127    2.4682   -7.1029 H         1 UNK         0.2983 
    111 H111       27.9573    4.1991   -9.1494 H         1 UNK         0.0947 
    112 H112       25.5617    4.4053   -9.8094 H         1 UNK         0.0806 
    113 H113       25.7462    4.5951   -8.0738 H         1 UNK         0.0806 
    114 H114       25.1281    3.0823   -8.7380 H         1 UNK         0.0806 
    115 H115       26.7343    0.8489   -9.1295 H         1 UNK         0.3000 
    116 H116       26.8661    0.4833  -11.9877 H         1 UNK         0.0850 
    117 H117       26.4730   -1.9127  -11.4070 H         1 UNK         0.0810 
    118 H118       25.3458   -0.8576  -10.5675 H         1 UNK         0.0810 
    119 H119       26.7104   -1.5548   -9.7015 H         1 UNK         0.0810 
    120 H120       28.9908   -0.5979   -9.2722 H         1 UNK         0.3040 
    121 H121       30.8360   -1.8871  -11.1025 H         1 UNK         0.0766 
    122 H122       30.9532   -1.4627   -8.0725 H         1 UNK         0.0812 
    123 H123       32.0100   -2.5207   -8.9963 H         1 UNK         0.0812 
    124 H124       30.2928   -2.8707   -8.9113 H         1 UNK         0.0812 
    125 H125       30.8083    1.2653   -9.4909 H         1 UNK         0.3205 
    126 H126       32.2239    2.9472   -9.2870 H         1 UNK         0.0754 
    127 H127       33.8309    3.4848  -11.0677 H         1 UNK         0.0769 
    128 H128       32.3303    2.9199  -11.7840 H         1 UNK         0.0769 
    129 H129       33.7352    1.8567  -11.7183 H         1 UNK         0.0769 
    130 H130       32.5439    1.0353   -7.4868 H         1 UNK         0.2981 
    131 H131       35.1452   -0.0463   -7.1874 H         1 UNK         0.0541 
    132 H132       36.7596    0.4130   -5.4527 H         1 UNK         0.3459 
    133 H133       37.0244    2.0792   -5.0116 H         1 UNK         0.3459 
    134 H134       34.3943   -0.6268   -4.8680 H         1 UNK         0.0612 
    135 H135       33.2697   -1.1271   -6.0984 H         1 UNK         0.0612 
    136 H136       33.0133   -0.4390   -2.7475 H         1 UNK         0.0624 
    137 H137       31.3899    0.1958   -2.6291 H         1 UNK         0.0624 
@<TRIPOS>BOND
     1    1    2 1    
     2    1   72 1    
     3    1   73 1    
     4    1   74 1    
     5    2    3 2    
     6    2    4 am   BACKBONE|DICT|INTERRES
     7    4    5 1    
     8    4   75 1    
     9    5    6 1    
    10    5   35 1    
    11    5   76 1    
    12    6    7 1    
    13    6   77 1    
    14    6   78 1    
    15    7    8 1    
    16    8    9 1    
    17    8   79 1    
    18    8   80 1    
    19    9   10 ar   
    20    9   14 ar   
    21   10   11 ar   
    22   10   81 1    
    23   11   12 ar   
    24   11   71 1    
    25   12   13 ar   
    26   12   82 1    
    27   13   14 ar   
    28   13   15 1    
    29   14   83 1    
    30   15   16 1    
    31   15   84 1    
    32   15   85 1    
    33   16   17 1    
    34   17   18 1    
    35   17   86 1    
    36   17   87 1    
    37   18   19 1    
    38   18   37 1    
    39   18   88 1    
    40   19   20 am   BACKBONE|DICT|INTERRES
    41   19   89 1    
    42   20   21 2    
    43   20   22 1    
    44   22   23 1    
    45   22   24 1    
    46   22   90 1    
    47   23   91 1    
    48   23   92 1    
    49   23   93 1    
    50   24   25 am   BACKBONE|DICT|INTERRES
    51   24   94 1    
    52   25   26 2    
    53   25   27 1    
    54   27   28 1    
    55   27   29 1    
    56   27   95 1    
    57   28   96 1    
    58   28   97 1    
    59   28   98 1    
    60   29   30 am   BACKBONE|DICT|INTERRES
    61   29   99 1    
    62   30   31 2    
    63   30   32 1    
    64   32   33 1    
    65   32   34 1    
    66   32  100 1    
    67   33  101 1    
    68   33  102 1    
    69   33  103 1    
    70   34   35 am   BACKBONE|DICT|INTERRES
    71   34  104 1    
    72   35   36 2    
    73   37   38 2    
    74   37   39 am   BACKBONE|DICT|INTERRES
    75   39   40 1    
    76   39  105 1    
    77   40   41 1    
    78   40   42 1    
    79   40  106 1    
    80   41  107 1    
    81   41  108 1    
    82   41  109 1    
    83   42   43 2    
    84   42   44 am   BACKBONE|DICT|INTERRES
    85   44   45 1    
    86   44  110 1    
    87   45   46 1    
    88   45   47 1    
    89   45  111 1    
    90   46  112 1    
    91   46  113 1    
    92   46  114 1    
    93   47   48 2    
    94   47   49 am   BACKBONE|DICT|INTERRES
    95   49   50 1    
    96   49  115 1    
    97   50   51 1    
    98   50   52 1    
    99   50  116 1    
   100   51  117 1    
   101   51  118 1    
   102   51  119 1    
   103   52   53 2    
   104   52   54 am   BACKBONE|DICT|INTERRES
   105   54   55 1    
   106   54  120 1    
   107   55   56 1    
   108   55   57 1    
   109   55  121 1    
   110   56  122 1    
   111   56  123 1    
   112   56  124 1    
   113   57   58 2    
   114   57   59 am   BACKBONE|DICT|INTERRES
   115   59   60 1    
   116   59  125 1    
   117   60   61 1    
   118   60   62 1    
   119   60  126 1    
   120   61  127 1    
   121   61  128 1    
   122   61  129 1    
   123   62   63 2    
   124   62   64 am   BACKBONE|DICT|INTERRES
   125   64   65 1    
   126   64  130 1    
   127   65   66 1    
   128   65   69 1    
   129   65  131 1    
   130   66   67 am   BACKBONE|DICT|INTERRES
   131   66   68 2    
   132   67  132 1    
   133   67  133 1    
   134   69   70 1    
   135   69  134 1    
   136   69  135 1    
   137   70   71 1    
   138   71  136 1    
   139   71  137 1    
@<TRIPOS>SUBSTRUCTURE
     1 UNK         1 GROUP             0       ****    0 ROOT    
