@<TRIPOS>MOLECULE
3R137
137   139    1
SMALL
USER_CHARGES


@<TRIPOS>ATOM
      1 CA         22.6462   -3.6559   -1.3682 C.3       0 UNK        -0.2020 
      2 C          24.0917   -3.2643   -1.1041 C.2       0 UNK         0.4855 
      3 O          24.3566   -2.1424   -0.6701 O.2       0 UNK        -0.5197 
      4 N          25.0298   -4.1865   -1.3563 N.am      1 UNK        -0.4892 
      5 CA         26.4664   -3.9877   -1.1397 C.3       1 UNK         0.0835 
      6 C6         27.2386   -5.3295   -1.1632 C.3       12 UNK        -0.0855 
      7 S7         28.8107   -5.2336   -0.2346 S.3       12 UNK        -0.2931 
      8 C8         29.9747   -6.1102   -1.3270 C.3       12 UNK         0.0378 
      9 C9         30.3455   -5.3036   -2.5646 C.ar      12 UNK        -0.0802 
     10 C10        31.3648   -4.3459   -2.5096 C.ar      12 UNK        -0.0944 
     11 C11        31.7483   -3.6497   -3.6619 C.ar      12 UNK        -0.0787 
     12 C12        31.0912   -3.9038   -4.8693 C.ar      12 UNK        -0.0862 
     13 C13        30.0617   -4.8458   -4.9312 C.ar      12 UNK        -0.0733 
     14 C14        29.7011   -5.5496   -3.7801 C.ar      12 UNK        -0.0832 
     15 C15        29.3385   -5.1140   -6.2401 C.3       12 UNK         0.0240 
     16 S16        27.7479   -4.2375   -6.2981 S.3       12 UNK        -0.2522 
     17 C17        28.3025   -2.5184   -6.5448 C.3       12 UNK        -0.0967 
     18 CA         27.1280   -1.6232   -6.9945 C.3       5 UNK         0.0660 
     19 N          26.1180   -1.4558   -5.9428 N.am      5 UNK        -0.4015 
     20 C          24.9163   -0.8909   -6.1313 C.2       4 UNK         0.4946 
     21 O          24.5366   -0.4255   -7.2063 O.2       4 UNK        -0.5353 
     22 CA         23.9907   -0.8087   -4.9112 C.3       4 UNK         0.0277 
     23 CB         23.3494   -2.1727   -4.6138 C.3       4 UNK        -0.1981 
     24 N          24.7072   -0.3133   -3.7356 N.am      4 UNK        -0.4209 
     25 C          24.9959    0.9812   -3.5351 C.2       3 UNK         0.4942 
     26 O          24.5981    1.8921   -4.2618 O.2       3 UNK        -0.5208 
     27 CA         25.8939    1.3276   -2.3347 C.3       3 UNK         0.0250 
     28 CB         25.0428    1.5926   -1.0827 C.3       3 UNK        -0.1990 
     29 N          26.8960    0.3028   -2.0341 N.am      3 UNK        -0.4232 
     30 C          27.8944   -0.0577   -2.8540 C.2       2 UNK         0.4993 
     31 O          28.0806    0.4316   -3.9657 O.2       2 UNK        -0.5286 
     32 CA         28.8113   -1.1915   -2.3706 C.3       2 UNK         0.0209 
     33 CB         29.9155   -0.6304   -1.4604 C.3       2 UNK        -0.1931 
     34 N          28.1019   -2.2534   -1.6557 N.am      2 UNK        -0.4546 
     35 C          27.0580   -2.9523   -2.1200 C.2       1 UNK         0.5154 
     36 O          26.5590   -2.7874   -3.2386 O.2       1 UNK        -0.5181 
     37 C          27.6276   -0.2854   -7.5747 C.2       5 UNK         0.5014 
     38 O          27.8702   -0.2217   -8.7806 O.2       5 UNK        -0.5248 
     39 N          27.7052    0.7684   -6.7465 N.am      6 UNK        -0.4434 
     40 CA         28.0801    2.1361   -7.1267 C.3       6 UNK         0.0363 
     41 CB         28.0557    3.0401   -5.8838 C.3       6 UNK        -0.1936 
     42 C          27.2423    2.7618   -8.2579 C.2       6 UNK         0.5081 
     43 O          27.7347    3.6707   -8.9265 O.2       6 UNK        -0.5248 
     44 N          26.0165    2.2636   -8.4789 N.am      7 UNK        -0.4718 
     45 CA         25.1725    2.6354   -9.6174 C.3       7 UNK         0.0273 
     46 CB         23.7411    2.1317   -9.3752 C.3       7 UNK        -0.1935 
     47 C          25.7081    2.1130  -10.9653 C.2       7 UNK         0.5018 
     48 O          25.4043    2.7132  -11.9972 O.2       7 UNK        -0.5186 
     49 N          26.4865    1.0215  -10.9391 N.am      8 UNK        -0.4240 
     50 CA         27.1694    0.4537  -12.0999 C.3       8 UNK         0.0235 
     51 CB         27.1251   -1.0830  -12.0342 C.3       8 UNK        -0.2000 
     52 C          28.6146    0.9658  -12.1713 C.2       8 UNK         0.4941 
     53 O          29.0098    1.4964  -13.2104 O.2       8 UNK        -0.5273 
     54 N          29.3709    0.8195  -11.0746 N.am      9 UNK        -0.4262 
     55 CA         30.7543    1.2760  -10.9448 C.3       9 UNK         0.0264 
     56 CB         31.7120    0.3470  -11.7163 C.3       9 UNK        -0.1955 
     57 C          31.1284    1.3213   -9.4608 C.2       9 UNK         0.5031 
     58 O          30.8441    0.3656   -8.7370 O.2       9 UNK        -0.5390 
     59 N          31.7676    2.4175   -9.0343 N.am      10 UNK        -0.4204 
     60 CA         32.2253    2.6280   -7.6586 C.3       10 UNK         0.0237 
     61 CB         32.6755    4.0887   -7.4940 C.3       10 UNK        -0.1985 
     62 C          33.3586    1.6652   -7.2644 C.2       10 UNK         0.4970 
     63 O          34.2026    1.3342   -8.1012 O.2       10 UNK        -0.4914 
     64 N          33.3588    1.2611   -5.9900 N.am      11 UNK        -0.4285 
     65 CA         34.3652    0.3854   -5.3738 C.3       11 UNK         0.1007 
     66 C          35.7772    1.0319   -5.3280 C.2       11 UNK         0.5703 
     67 N          36.8288    0.2379   -5.4784 N.am      11 UNK        -0.7361 
     68 O          35.9273    2.2341   -5.1153 O.2       11 UNK        -0.4986 
     69 C69        33.9235   -0.0578   -3.9549 C.3       12 UNK        -0.0947 
     70 S70        32.3376   -0.9589   -3.9689 S.3       12 UNK        -0.2240 
     71 C71        32.8978   -2.6530   -3.6213 C.3       12 UNK         0.0194 
     72 H72        22.0443   -2.7738   -1.5850 H         1 UNK         0.0906 
     73 H73        22.5663   -4.3370   -2.2153 H         1 UNK         0.0906 
     74 H74        22.2238   -4.1441   -0.4904 H         1 UNK         0.0906 
     75 H75        24.7597   -5.0771   -1.7489 H         1 UNK         0.3140 
     76 H76        26.5559   -3.5693   -0.1339 H         1 UNK         0.1085 
     77 H77        26.6452   -6.1099   -0.6838 H         1 UNK         0.0836 
     78 H78        27.3998   -5.6699   -2.1861 H         1 UNK         0.0836 
     79 H79        29.5506   -7.0756   -1.6083 H         1 UNK         0.0731 
     80 H80        30.8796   -6.3353   -0.7605 H         1 UNK         0.0731 
     81 H81        31.8721   -4.1599   -1.5728 H         1 UNK         0.1312 
     82 H82        31.3830   -3.3642   -5.7602 H         1 UNK         0.1406 
     83 H83        28.9173   -6.2924   -3.8373 H         1 UNK         0.1631 
     84 H84        29.1552   -6.1845   -6.3441 H         1 UNK         0.0717 
     85 H85        29.9535   -4.8262   -7.0942 H         1 UNK         0.0717 
     86 H86        28.7488   -2.1427   -5.6223 H         1 UNK         0.0934 
     87 H87        29.0953   -2.5200   -7.2963 H         1 UNK         0.0934 
     88 H88        26.6280   -2.1302   -7.8231 H         1 UNK         0.0739 
     89 H89        26.3409   -1.8502   -5.0335 H         1 UNK         0.3093 
     90 H90        23.1857   -0.1109   -5.1531 H         1 UNK         0.0818 
     91 H91        24.0851   -2.9142   -4.3012 H         1 UNK         0.0819 
     92 H92        22.5983   -2.0860   -3.8302 H         1 UNK         0.0819 
     93 H93        22.8456   -2.5668   -5.4974 H         1 UNK         0.0819 
     94 H94        25.0995   -1.0048   -3.1087 H         1 UNK         0.3041 
     95 H95        26.4296    2.2460   -2.5848 H         1 UNK         0.0784 
     96 H96        24.3014    2.3702   -1.2723 H         1 UNK         0.0793 
     97 H97        24.5040    0.6990   -0.7644 H         1 UNK         0.0793 
     98 H98        25.6576    1.9302   -0.2480 H         1 UNK         0.0793 
     99 H99        26.8052   -0.1779   -1.1505 H         1 UNK         0.3024 
    100 H100       29.2775   -1.6390   -3.2512 H         1 UNK         0.1171 
    101 H101       30.6607   -1.3921   -1.2292 H         1 UNK         0.0786 
    102 H102       30.4388    0.1960   -1.9434 H         1 UNK         0.0786 
    103 H103       29.5148   -0.2529   -0.5190 H         1 UNK         0.0786 
    104 H104       28.4645   -2.4942   -0.7440 H         1 UNK         0.2977 
    105 H105       27.5745    0.6076   -5.7491 H         1 UNK         0.3127 
    106 H106       29.1057    2.0921   -7.4896 H         1 UNK         0.0770 
    107 H107       27.0736    3.0430   -5.4090 H         1 UNK         0.0814 
    108 H108       28.2995    4.0719   -6.1411 H         1 UNK         0.0814 
    109 H109       28.7867    2.7155   -5.1436 H         1 UNK         0.0814 
    110 H110       25.6834    1.5084   -7.8913 H         1 UNK         0.2983 
    111 H111       25.1452    3.7258   -9.6769 H         1 UNK         0.0947 
    112 H112       23.0744    2.4525  -10.1768 H         1 UNK         0.0806 
    113 H113       23.3349    2.5190   -8.4406 H         1 UNK         0.0806 
    114 H114       23.6989    1.0426   -9.3337 H         1 UNK         0.0806 
    115 H115       26.7379    0.6223  -10.0383 H         1 UNK         0.3000 
    116 H116       26.6594    0.7595  -13.0162 H         1 UNK         0.0850 
    117 H117       27.6235   -1.5228  -12.8990 H         1 UNK         0.0810 
    118 H118       26.0978   -1.4474  -12.0323 H         1 UNK         0.0810 
    119 H119       27.6175   -1.4722  -11.1425 H         1 UNK         0.0810 
    120 H120       28.9755    0.3890  -10.2387 H         1 UNK         0.3040 
    121 H121       30.8253    2.2851  -11.3569 H         1 UNK         0.0766 
    122 H122       31.5072    0.3563  -12.7868 H         1 UNK         0.0812 
    123 H123       31.6340   -0.6841  -11.3691 H         1 UNK         0.0812 
    124 H124       32.7490    0.6585  -11.5840 H         1 UNK         0.0812 
    125 H125       32.0029    3.1371   -9.7024 H         1 UNK         0.3205 
    126 H126       31.3777    2.4531   -6.9931 H         1 UNK         0.0754 
    127 H127       33.0002    4.2854   -6.4712 H         1 UNK         0.0769 
    128 H128       31.8630    4.7822   -7.7129 H         1 UNK         0.0769 
    129 H129       33.5116    4.3298   -8.1519 H         1 UNK         0.0769 
    130 H130       32.6363    1.5925   -5.3692 H         1 UNK         0.2981 
    131 H131       34.4318   -0.5071   -5.9994 H         1 UNK         0.0541 
    132 H132       37.7534    0.6373   -5.4359 H         1 UNK         0.3459 
    133 H133       36.7182   -0.7509   -5.6411 H         1 UNK         0.3459 
    134 H134       33.8135    0.8091   -3.3009 H         1 UNK         0.0612 
    135 H135       34.6868   -0.6875   -3.4939 H         1 UNK         0.0612 
    136 H136       33.3906   -2.6716   -2.6480 H         1 UNK         0.0624 
    137 H137       33.6481   -2.9423   -4.3586 H         1 UNK         0.0624 
@<TRIPOS>BOND
     1    1    2 1    
     2    1   72 1    
     3    1   73 1    
     4    1   74 1    
     5    2    3 2    
     6    2    4 am   BACKBONE|DICT|INTERRES
     7    4    5 1    
     8    4   75 1    
     9    5    6 1    
    10    5   35 1    
    11    5   76 1    
    12    6    7 1    
    13    6   77 1    
    14    6   78 1    
    15    7    8 1    
    16    8    9 1    
    17    8   79 1    
    18    8   80 1    
    19    9   10 ar   
    20    9   14 ar   
    21   10   11 ar   
    22   10   81 1    
    23   11   12 ar   
    24   11   71 1    
    25   12   13 ar   
    26   12   82 1    
    27   13   14 ar   
    28   13   15 1    
    29   14   83 1    
    30   15   16 1    
    31   15   84 1    
    32   15   85 1    
    33   16   17 1    
    34   17   18 1    
    35   17   86 1    
    36   17   87 1    
    37   18   19 1    
    38   18   37 1    
    39   18   88 1    
    40   19   20 am   BACKBONE|DICT|INTERRES
    41   19   89 1    
    42   20   21 2    
    43   20   22 1    
    44   22   23 1    
    45   22   24 1    
    46   22   90 1    
    47   23   91 1    
    48   23   92 1    
    49   23   93 1    
    50   24   25 am   BACKBONE|DICT|INTERRES
    51   24   94 1    
    52   25   26 2    
    53   25   27 1    
    54   27   28 1    
    55   27   29 1    
    56   27   95 1    
    57   28   96 1    
    58   28   97 1    
    59   28   98 1    
    60   29   30 am   BACKBONE|DICT|INTERRES
    61   29   99 1    
    62   30   31 2    
    63   30   32 1    
    64   32   33 1    
    65   32   34 1    
    66   32  100 1    
    67   33  101 1    
    68   33  102 1    
    69   33  103 1    
    70   34   35 am   BACKBONE|DICT|INTERRES
    71   34  104 1    
    72   35   36 2    
    73   37   38 2    
    74   37   39 am   BACKBONE|DICT|INTERRES
    75   39   40 1    
    76   39  105 1    
    77   40   41 1    
    78   40   42 1    
    79   40  106 1    
    80   41  107 1    
    81   41  108 1    
    82   41  109 1    
    83   42   43 2    
    84   42   44 am   BACKBONE|DICT|INTERRES
    85   44   45 1    
    86   44  110 1    
    87   45   46 1    
    88   45   47 1    
    89   45  111 1    
    90   46  112 1    
    91   46  113 1    
    92   46  114 1    
    93   47   48 2    
    94   47   49 am   BACKBONE|DICT|INTERRES
    95   49   50 1    
    96   49  115 1    
    97   50   51 1    
    98   50   52 1    
    99   50  116 1    
   100   51  117 1    
   101   51  118 1    
   102   51  119 1    
   103   52   53 2    
   104   52   54 am   BACKBONE|DICT|INTERRES
   105   54   55 1    
   106   54  120 1    
   107   55   56 1    
   108   55   57 1    
   109   55  121 1    
   110   56  122 1    
   111   56  123 1    
   112   56  124 1    
   113   57   58 2    
   114   57   59 am   BACKBONE|DICT|INTERRES
   115   59   60 1    
   116   59  125 1    
   117   60   61 1    
   118   60   62 1    
   119   60  126 1    
   120   61  127 1    
   121   61  128 1    
   122   61  129 1    
   123   62   63 2    
   124   62   64 am   BACKBONE|DICT|INTERRES
   125   64   65 1    
   126   64  130 1    
   127   65   66 1    
   128   65   69 1    
   129   65  131 1    
   130   66   67 am   BACKBONE|DICT|INTERRES
   131   66   68 2    
   132   67  132 1    
   133   67  133 1    
   134   69   70 1    
   135   69  134 1    
   136   69  135 1    
   137   70   71 1    
   138   71  136 1    
   139   71  137 1    
@<TRIPOS>SUBSTRUCTURE
     1 UNK         1 GROUP             0       ****    0 ROOT    
