@<TRIPOS>MOLECULE
3R137
137   139    1
SMALL
USER_CHARGES


@<TRIPOS>ATOM
      1 CA         25.6842   -3.8794    2.8092 C.3       0 UNK        -0.2020 
      2 C          26.3698   -4.9848    2.0095 C.2       0 UNK         0.4855 
      3 O          26.0208   -6.1512    2.1790 O.2       0 UNK        -0.5197 
      4 N          27.3490   -4.6899    1.1408 N.am      1 UNK        -0.4892 
      5 CA         27.8485   -3.3592    0.7666 C.3       1 UNK         0.0835 
      6 C6         29.1693   -3.4810   -0.0350 C.3       12 UNK        -0.0855 
      7 S7         30.1530   -1.9428   -0.1081 S.3       12 UNK        -0.2931 
      8 C8         29.6129   -1.1740   -1.6719 C.3       12 UNK         0.0378 
      9 C9         30.0900   -1.9289   -2.9056 C.ar      12 UNK        -0.0802 
     10 C10        31.3064   -1.6021   -3.5098 C.ar      12 UNK        -0.0944 
     11 C11        31.7273   -2.2704   -4.6641 C.ar      12 UNK        -0.0787 
     12 C12        30.9255   -3.2796   -5.2109 C.ar      12 UNK        -0.0862 
     13 C13        29.7041   -3.6132   -4.6166 C.ar      12 UNK        -0.0733 
     14 C14        29.2917   -2.9241   -3.4739 C.ar      12 UNK        -0.0832 
     15 C15        28.8533   -4.7546   -5.1596 C.3       12 UNK         0.0240 
     16 S16        27.1249   -4.2649   -5.4840 S.3       12 UNK        -0.2522 
     17 C17        27.1445   -3.8822   -7.2667 C.3       12 UNK        -0.0967 
     18 CA         26.7971   -2.4182   -7.6283 C.3       5 UNK         0.0660 
     19 N          25.5657   -1.9249   -7.0049 N.am      5 UNK        -0.4015 
     20 C          24.8747   -0.8734   -7.4691 C.2       4 UNK         0.4946 
     21 O          25.1931   -0.2329   -8.4723 O.2       4 UNK        -0.5353 
     22 CA         23.6430   -0.4400   -6.6597 C.3       4 UNK         0.0277 
     23 CB         22.5148   -1.4799   -6.7654 C.3       4 UNK        -0.1981 
     24 N          23.9469   -0.1766   -5.2513 N.am      4 UNK        -0.4209 
     25 C          24.8017    0.7594   -4.8121 C.2       3 UNK         0.4942 
     26 O          25.4454    1.4999   -5.5542 O.2       3 UNK        -0.5208 
     27 CA         24.9727    0.9034   -3.2893 C.3       3 UNK         0.0250 
     28 CB         24.0992    2.0524   -2.7607 C.3       3 UNK        -0.1990 
     29 N          24.6797   -0.3169   -2.5308 N.am      3 UNK        -0.4232 
     30 C          25.4100   -1.4378   -2.5937 C.2       2 UNK         0.4993 
     31 O          26.3706   -1.5833   -3.3503 O.2       2 UNK        -0.5286 
     32 CA         24.9636   -2.6027   -1.6929 C.3       2 UNK         0.0209 
     33 CB         24.2988   -3.7043   -2.5343 C.3       2 UNK        -0.1931 
     34 N          26.0692   -3.1842   -0.9252 N.am      2 UNK        -0.4546 
     35 C          26.7760   -2.5386    0.0152 C.2       1 UNK         0.5154 
     36 O          26.5658   -1.3709    0.3449 O.2       1 UNK        -0.5181 
     37 C          27.9787   -1.4516   -7.4336 C.2       5 UNK         0.5014 
     38 O          28.7883   -1.3266   -8.3527 O.2       5 UNK        -0.5248 
     39 N          28.0197   -0.7414   -6.2944 N.am      6 UNK        -0.4434 
     40 CA         28.9877    0.3229   -6.0123 C.3       6 UNK         0.0363 
     41 CB         28.7490    0.8876   -4.6022 C.3       6 UNK        -0.1936 
     42 C          28.9261    1.4510   -7.0546 C.2       6 UNK         0.5081 
     43 O          29.9605    1.8388   -7.5963 O.2       6 UNK        -0.5248 
     44 N          27.7067    1.9276   -7.3431 N.am      7 UNK        -0.4718 
     45 CA         27.4307    2.9361   -8.3641 C.3       7 UNK         0.0273 
     46 CB         25.9847    3.4358   -8.2180 C.3       7 UNK        -0.1935 
     47 C          27.6890    2.4233   -9.7887 C.2       7 UNK         0.5018 
     48 O          28.3046    3.1415  -10.5766 O.2       7 UNK        -0.5186 
     49 N          27.2281    1.2001  -10.0930 N.am      8 UNK        -0.4240 
     50 CA         27.3593    0.5752  -11.4133 C.3       8 UNK         0.0235 
     51 CB         26.5249   -0.7135  -11.4737 C.3       8 UNK        -0.2000 
     52 C          28.8154    0.2956  -11.8191 C.2       8 UNK         0.4941 
     53 O          29.1878    0.5916  -12.9554 O.2       8 UNK        -0.5273 
     54 N          29.6125   -0.2571  -10.8942 N.am      9 UNK        -0.4262 
     55 CA         31.0325   -0.5497  -11.1115 C.3       9 UNK         0.0264 
     56 CB         31.4395   -1.7457  -10.2372 C.3       9 UNK        -0.1955 
     57 C          31.9516    0.6609  -10.8600 C.2       9 UNK         0.5031 
     58 O          33.1267    0.5898  -11.2234 O.2       9 UNK        -0.5390 
     59 N          31.4129    1.7355  -10.2614 N.am      10 UNK        -0.4204 
     60 CA         32.0843    2.9804   -9.8685 C.3       10 UNK         0.0237 
     61 CB         32.5646    3.7672  -11.1069 C.3       10 UNK        -0.1985 
     62 C          33.1980    2.7214   -8.8371 C.2       10 UNK         0.4970 
     63 O          34.3671    3.0188   -9.0926 O.2       10 UNK        -0.4914 
     64 N          32.8047    2.1466   -7.6977 N.am      11 UNK        -0.4285 
     65 CA         33.6886    1.7133   -6.6089 C.3       11 UNK         0.1007 
     66 C          33.0769    1.9974   -5.2089 C.2       11 UNK         0.5703 
     67 N          33.7898    1.6698   -4.1388 N.am      11 UNK        -0.7361 
     68 O          31.9793    2.5338   -5.0735 O.2       11 UNK        -0.4986 
     69 C69        34.1595    0.2447   -6.8116 C.3       12 UNK        -0.0947 
     70 S70        32.7843   -0.9565   -6.8424 S.3       12 UNK        -0.2240 
     71 C71        33.0518   -1.9011   -5.3126 C.3       12 UNK         0.0194 
     72 H72        25.1545   -4.3039    3.6620 H         1 UNK         0.0906 
     73 H73        26.3983   -3.1564    3.2007 H         1 UNK         0.0906 
     74 H74        24.9533   -3.3563    2.1933 H         1 UNK         0.0906 
     75 H75        27.7835   -5.4609    0.6533 H         1 UNK         0.3140 
     76 H76        28.0801   -2.8239    1.6895 H         1 UNK         0.1085 
     77 H77        28.9970   -3.8913   -1.0272 H         1 UNK         0.0836 
     78 H78        29.8141   -4.2116    0.4567 H         1 UNK         0.0836 
     79 H79        28.5276   -1.0781   -1.6862 H         1 UNK         0.0731 
     80 H80        29.9966   -0.1530   -1.7016 H         1 UNK         0.0731 
     81 H81        31.9212   -0.8199   -3.0856 H         1 UNK         0.1312 
     82 H82        31.2574   -3.8030   -6.0971 H         1 UNK         0.1406 
     83 H83        28.3372   -3.1664   -3.0291 H         1 UNK         0.1631 
     84 H84        28.8437   -5.5502   -4.4135 H         1 UNK         0.0717 
     85 H85        29.2993   -5.1913   -6.0539 H         1 UNK         0.0717 
     86 H86        28.1021   -4.1649   -7.7080 H         1 UNK         0.0934 
     87 H87        26.4132   -4.5418   -7.7364 H         1 UNK         0.0934 
     88 H88        26.6083   -2.4267   -8.7032 H         1 UNK         0.0739 
     89 H89        25.2750   -2.3844   -6.1538 H         1 UNK         0.3093 
     90 H90        23.2819    0.4942   -7.0955 H         1 UNK         0.0818 
     91 H91        21.5994   -1.1192   -6.2958 H         1 UNK         0.0819 
     92 H92        22.2775   -1.6923   -7.8089 H         1 UNK         0.0819 
     93 H93        22.7828   -2.4257   -6.2930 H         1 UNK         0.0819 
     94 H94        23.4586   -0.7319   -4.5649 H         1 UNK         0.3041 
     95 H95        26.0175    1.1612   -3.1050 H         1 UNK         0.0784 
     96 H96        24.3173    2.9822   -3.2884 H         1 UNK         0.0793 
     97 H97        23.0361    1.8460   -2.8908 H         1 UNK         0.0793 
     98 H98        24.2805    2.2346   -1.7012 H         1 UNK         0.0793 
     99 H99        23.9000   -0.2727   -1.8901 H         1 UNK         0.3024 
    100 H100       24.2295   -2.2299   -0.9750 H         1 UNK         0.1171 
    101 H101       23.4568   -3.3096   -3.1043 H         1 UNK         0.0786 
    102 H102       23.9138   -4.5074   -1.9055 H         1 UNK         0.0786 
    103 H103       24.9978   -4.1427   -3.2477 H         1 UNK         0.0786 
    104 H104       26.2987   -4.1471   -1.1224 H         1 UNK         0.2977 
    105 H105       27.3325   -0.9341   -5.5775 H         1 UNK         0.3127 
    106 H106       29.9813   -0.1276   -6.0434 H         1 UNK         0.0770 
    107 H107       27.9212    1.5954   -4.5744 H         1 UNK         0.0814 
    108 H108       29.6340    1.4147   -4.2456 H         1 UNK         0.0814 
    109 H109       28.5241    0.1001   -3.8876 H         1 UNK         0.0814 
    110 H110       26.9073    1.5811   -6.8174 H         1 UNK         0.2983 
    111 H111       28.1020    3.7799   -8.1898 H         1 UNK         0.0947 
    112 H112       25.7550    4.1961   -8.9657 H         1 UNK         0.0806 
    113 H113       25.8188    3.8830   -7.2377 H         1 UNK         0.0806 
    114 H114       25.2635    2.6264   -8.3394 H         1 UNK         0.0806 
    115 H115       26.6910    0.6920   -9.3949 H         1 UNK         0.3000 
    116 H116       26.9456    1.2745  -12.1432 H         1 UNK         0.0850 
    117 H117       26.5593   -1.1530  -12.4715 H         1 UNK         0.0810 
    118 H118       25.4775   -0.5217  -11.2401 H         1 UNK         0.0810 
    119 H119       26.8939   -1.4641  -10.7759 H         1 UNK         0.0810 
    120 H120       29.2314   -0.5081   -9.9823 H         1 UNK         0.3040 
    121 H121       31.1778   -0.8438  -12.1533 H         1 UNK         0.0766 
    122 H122       32.4962   -1.9863  -10.3606 H         1 UNK         0.0812 
    123 H123       30.8693   -2.6377  -10.4962 H         1 UNK         0.0812 
    124 H124       31.2719   -1.5411   -9.1813 H         1 UNK         0.0812 
    125 H125       30.4489    1.6618   -9.9636 H         1 UNK         0.3205 
    126 H126       31.3303    3.5896   -9.3671 H         1 UNK         0.0754 
    127 H127       32.9801    4.7328  -10.8162 H         1 UNK         0.0769 
    128 H128       31.7408    3.9617  -11.7939 H         1 UNK         0.0769 
    129 H129       33.3402    3.2328  -11.6564 H         1 UNK         0.0769 
    130 H130       31.8108    1.9779   -7.5450 H         1 UNK         0.2981 
    131 H131       34.5775    2.3460   -6.6387 H         1 UNK         0.0541 
    132 H132       34.7033    1.2540   -4.2249 H         1 UNK         0.3459 
    133 H133       33.4122    1.8651   -3.2254 H         1 UNK         0.3459 
    134 H134       34.8956   -0.0386   -6.0587 H         1 UNK         0.0612 
    135 H135       34.6825    0.1636   -7.7656 H         1 UNK         0.0612 
    136 H136       33.6198   -2.8035   -5.5424 H         1 UNK         0.0624 
    137 H137       33.6585   -1.3237   -4.6140 H         1 UNK         0.0624 
@<TRIPOS>BOND
     1    1    2 1    
     2    1   72 1    
     3    1   73 1    
     4    1   74 1    
     5    2    3 2    
     6    2    4 am   BACKBONE|DICT|INTERRES
     7    4    5 1    
     8    4   75 1    
     9    5    6 1    
    10    5   35 1    
    11    5   76 1    
    12    6    7 1    
    13    6   77 1    
    14    6   78 1    
    15    7    8 1    
    16    8    9 1    
    17    8   79 1    
    18    8   80 1    
    19    9   10 ar   
    20    9   14 ar   
    21   10   11 ar   
    22   10   81 1    
    23   11   12 ar   
    24   11   71 1    
    25   12   13 ar   
    26   12   82 1    
    27   13   14 ar   
    28   13   15 1    
    29   14   83 1    
    30   15   16 1    
    31   15   84 1    
    32   15   85 1    
    33   16   17 1    
    34   17   18 1    
    35   17   86 1    
    36   17   87 1    
    37   18   19 1    
    38   18   37 1    
    39   18   88 1    
    40   19   20 am   BACKBONE|DICT|INTERRES
    41   19   89 1    
    42   20   21 2    
    43   20   22 1    
    44   22   23 1    
    45   22   24 1    
    46   22   90 1    
    47   23   91 1    
    48   23   92 1    
    49   23   93 1    
    50   24   25 am   BACKBONE|DICT|INTERRES
    51   24   94 1    
    52   25   26 2    
    53   25   27 1    
    54   27   28 1    
    55   27   29 1    
    56   27   95 1    
    57   28   96 1    
    58   28   97 1    
    59   28   98 1    
    60   29   30 am   BACKBONE|DICT|INTERRES
    61   29   99 1    
    62   30   31 2    
    63   30   32 1    
    64   32   33 1    
    65   32   34 1    
    66   32  100 1    
    67   33  101 1    
    68   33  102 1    
    69   33  103 1    
    70   34   35 am   BACKBONE|DICT|INTERRES
    71   34  104 1    
    72   35   36 2    
    73   37   38 2    
    74   37   39 am   BACKBONE|DICT|INTERRES
    75   39   40 1    
    76   39  105 1    
    77   40   41 1    
    78   40   42 1    
    79   40  106 1    
    80   41  107 1    
    81   41  108 1    
    82   41  109 1    
    83   42   43 2    
    84   42   44 am   BACKBONE|DICT|INTERRES
    85   44   45 1    
    86   44  110 1    
    87   45   46 1    
    88   45   47 1    
    89   45  111 1    
    90   46  112 1    
    91   46  113 1    
    92   46  114 1    
    93   47   48 2    
    94   47   49 am   BACKBONE|DICT|INTERRES
    95   49   50 1    
    96   49  115 1    
    97   50   51 1    
    98   50   52 1    
    99   50  116 1    
   100   51  117 1    
   101   51  118 1    
   102   51  119 1    
   103   52   53 2    
   104   52   54 am   BACKBONE|DICT|INTERRES
   105   54   55 1    
   106   54  120 1    
   107   55   56 1    
   108   55   57 1    
   109   55  121 1    
   110   56  122 1    
   111   56  123 1    
   112   56  124 1    
   113   57   58 2    
   114   57   59 am   BACKBONE|DICT|INTERRES
   115   59   60 1    
   116   59  125 1    
   117   60   61 1    
   118   60   62 1    
   119   60  126 1    
   120   61  127 1    
   121   61  128 1    
   122   61  129 1    
   123   62   63 2    
   124   62   64 am   BACKBONE|DICT|INTERRES
   125   64   65 1    
   126   64  130 1    
   127   65   66 1    
   128   65   69 1    
   129   65  131 1    
   130   66   67 am   BACKBONE|DICT|INTERRES
   131   66   68 2    
   132   67  132 1    
   133   67  133 1    
   134   69   70 1    
   135   69  134 1    
   136   69  135 1    
   137   70   71 1    
   138   71  136 1    
   139   71  137 1    
@<TRIPOS>SUBSTRUCTURE
     1 UNK         1 GROUP             0       ****    0 ROOT    
