@<TRIPOS>MOLECULE
3R137
137   139    1
SMALL
USER_CHARGES


@<TRIPOS>ATOM
      1 CA         27.4012   -1.9494    3.7899 C.3       0 UNK        -0.2020 
      2 C          27.2045   -1.6432    2.3125 C.2       0 UNK         0.4855 
      3 O          26.5674   -0.6450    1.9736 O.2       0 UNK        -0.5197 
      4 N          27.7543   -2.4880    1.4317 N.am      1 UNK        -0.4892 
      5 CA         27.6320   -2.3777   -0.0271 C.3       1 UNK         0.0835 
      6 C6         28.6663   -3.2679   -0.7625 C.3       12 UNK        -0.0855 
      7 S7         30.3881   -2.8843   -0.2845 S.3       12 UNK        -0.2931 
      8 C8         31.3330   -4.0723   -1.2935 C.3       12 UNK         0.0378 
      9 C9         31.3518   -3.6642   -2.7585 C.ar      12 UNK        -0.0802 
     10 C10        32.2648   -2.7067   -3.2113 C.ar      12 UNK        -0.0944 
     11 C11        32.2493   -2.2870   -4.5450 C.ar      12 UNK        -0.0787 
     12 C12        31.3141   -2.8334   -5.4285 C.ar      12 UNK        -0.0862 
     13 C13        30.3927   -3.7870   -4.9836 C.ar      12 UNK        -0.0733 
     14 C14        30.4335   -4.2175   -3.6545 C.ar      12 UNK        -0.0832 
     15 C15        29.3024   -4.2923   -5.9188 C.3       12 UNK         0.0240 
     16 S16        27.6294   -3.8747   -5.3149 S.3       12 UNK        -0.2522 
     17 C17        27.7396   -2.0679   -5.0695 C.3       12 UNK        -0.0967 
     18 CA         27.1503   -1.2747   -6.2558 C.3       5 UNK         0.0660 
     19 N          25.7103   -1.5010   -6.4038 N.am      5 UNK        -0.4015 
     20 C          24.9903   -1.1921   -7.4897 C.2       4 UNK         0.4946 
     21 O          25.4624   -0.6951   -8.5095 O.2       4 UNK        -0.5353 
     22 CA         23.4754   -1.4403   -7.4087 C.3       4 UNK         0.0277 
     23 CB         23.1502   -2.9126   -7.7068 C.3       4 UNK        -0.1981 
     24 N          22.9159   -1.0620   -6.1091 N.am      4 UNK        -0.4209 
     25 C          22.8868    0.1925   -5.6354 C.2       3 UNK         0.4942 
     26 O          23.2651    1.1743   -6.2747 O.2       3 UNK        -0.5208 
     27 CA         22.4096    0.3707   -4.1830 C.3       3 UNK         0.0250 
     28 CB         20.8797    0.5059   -4.1286 C.3       3 UNK        -0.1990 
     29 N          22.8441   -0.7136   -3.2916 N.am      3 UNK        -0.4232 
     30 C          24.1251   -1.0010   -3.0226 C.2       2 UNK         0.4993 
     31 O          25.0798   -0.3834   -3.5014 O.2       2 UNK        -0.5286 
     32 CA         24.3939   -2.2103   -2.1226 C.3       2 UNK         0.0209 
     33 CB         24.2932   -3.5185   -2.9322 C.3       2 UNK        -0.1931 
     34 N          25.7320   -2.0672   -1.5520 N.am      2 UNK        -0.4546 
     35 C          26.1966   -2.7213   -0.4823 C.2       1 UNK         0.5154 
     36 O          25.5493   -3.5796    0.1250 O.2       1 UNK        -0.5181 
     37 C          27.4936    0.2214   -6.1211 C.2       5 UNK         0.5014 
     38 O          28.5550    0.6355   -6.5835 O.2       5 UNK        -0.5248 
     39 N          26.6071    1.0094   -5.4961 N.am      6 UNK        -0.4434 
     40 CA         26.7201    2.4671   -5.4185 C.3       6 UNK         0.0363 
     41 CB         25.7007    3.0151   -4.4073 C.3       6 UNK        -0.1936 
     42 C          26.5502    3.1374   -6.7936 C.2       6 UNK         0.5081 
     43 O          27.2530    4.1062   -7.0823 O.2       6 UNK        -0.5248 
     44 N          25.6357    2.6051   -7.6173 N.am      7 UNK        -0.4718 
     45 CA         25.4182    3.0291   -9.0004 C.3       7 UNK         0.0273 
     46 CB         24.0547    2.5137   -9.4918 C.3       7 UNK        -0.1935 
     47 C          26.5599    2.5746   -9.9255 C.2       7 UNK         0.5018 
     48 O          27.2056    3.4151  -10.5535 O.2       7 UNK        -0.5186 
     49 N          26.8006    1.2589   -9.9861 N.am      8 UNK        -0.4240 
     50 CA         27.8580    0.6339  -10.7785 C.3       8 UNK         0.0235 
     51 CB         27.3507   -0.7149  -11.3228 C.3       8 UNK        -0.2000 
     52 C          29.1192    0.4820   -9.9166 C.2       8 UNK         0.4941 
     53 O          29.4635   -0.6308   -9.5090 O.2       8 UNK        -0.5273 
     54 N          29.7816    1.6136   -9.6418 N.am      9 UNK        -0.4262 
     55 CA         30.9825    1.7302   -8.8082 C.3       9 UNK         0.0264 
     56 CB         31.1638    3.2048   -8.4042 C.3       9 UNK        -0.1955 
     57 C          32.2388    1.1396   -9.4801 C.2       9 UNK         0.5031 
     58 O          33.1976    1.8638   -9.7579 O.2       9 UNK        -0.5390 
     59 N          32.2111   -0.1775   -9.7203 N.am      10 UNK        -0.4204 
     60 CA         33.2481   -0.9753  -10.3856 C.3       10 UNK         0.0237 
     61 CB         32.7546   -2.4265  -10.5058 C.3       10 UNK        -0.1985 
     62 C          34.6339   -0.9349   -9.7144 C.2       10 UNK         0.4970 
     63 O          35.6320   -1.1930  -10.3886 O.2       10 UNK        -0.4914 
     64 N          34.6748   -0.6043   -8.4179 N.am      11 UNK        -0.4285 
     65 CA         35.9050   -0.3683   -7.6482 C.3       11 UNK         0.1007 
     66 C          36.6692    0.9293   -8.0487 C.2       11 UNK         0.5703 
     67 N          36.0717    1.8608   -8.7855 N.am      11 UNK        -0.7361 
     68 O          37.8319    1.0901   -7.6851 O.2       11 UNK        -0.4986 
     69 C69        35.6480   -0.3961   -6.1178 C.3       12 UNK        -0.0947 
     70 S70        34.7971   -1.9087   -5.5514 S.3       12 UNK        -0.2240 
     71 C71        33.2074   -1.2068   -5.0192 C.3       12 UNK         0.0194 
     72 H72        26.4359   -2.0927    4.2747 H         1 UNK         0.0906 
     73 H73        27.9953   -2.8499    3.9446 H         1 UNK         0.0906 
     74 H74        27.9095   -1.1199    4.2807 H         1 UNK         0.0906 
     75 H75        28.2623   -3.2955    1.7631 H         1 UNK         0.3140 
     76 H76        27.8288   -1.3368   -0.2951 H         1 UNK         0.1085 
     77 H77        28.5717   -3.1318   -1.8414 H         1 UNK         0.0836 
     78 H78        28.4762   -4.3250   -0.5657 H         1 UNK         0.0836 
     79 H79        32.3554   -4.1218   -0.9157 H         1 UNK         0.0731 
     80 H80        30.9153   -5.0733   -1.1733 H         1 UNK         0.0731 
     81 H81        32.9728   -2.2710   -2.5193 H         1 UNK         0.1312 
     82 H82        31.2817   -2.4896   -6.4536 H         1 UNK         0.1406 
     83 H83        29.7121   -4.9451   -3.3074 H         1 UNK         0.1631 
     84 H84        29.3861   -5.3753   -6.0182 H         1 UNK         0.0717 
     85 H85        29.4257   -3.8784   -6.9210 H         1 UNK         0.0717 
     86 H86        27.2150   -1.8228   -4.1458 H         1 UNK         0.0934 
     87 H87        28.7745   -1.7752   -4.8930 H         1 UNK         0.0934 
     88 H88        27.6359   -1.6227   -7.1710 H         1 UNK         0.0739 
     89 H89        25.2370   -1.8815   -5.5992 H         1 UNK         0.3093 
     90 H90        22.9978   -0.8225   -8.1725 H         1 UNK         0.0818 
     91 H91        22.0738   -3.0839   -7.7322 H         1 UNK         0.0819 
     92 H92        23.5460   -3.2083   -8.6796 H         1 UNK         0.0819 
     93 H93        23.5804   -3.5844   -6.9628 H         1 UNK         0.0819 
     94 H94        22.5669   -1.8057   -5.5226 H         1 UNK         0.3041 
     95 H95        22.8461    1.2993   -3.8089 H         1 UNK         0.0784 
     96 H96        20.5377    1.3193   -4.7705 H         1 UNK         0.0793 
     97 H97        20.3788   -0.4042   -4.4612 H         1 UNK         0.0793 
     98 H98        20.5366    0.7285   -3.1180 H         1 UNK         0.0793 
     99 H99        22.1158   -1.2693   -2.8653 H         1 UNK         0.3024 
    100 H100       23.6600   -2.2143   -1.3132 H         1 UNK         0.1171 
    101 H101       23.3065   -3.6311   -3.3830 H         1 UNK         0.0786 
    102 H102       24.4551   -4.3923   -2.3011 H         1 UNK         0.0786 
    103 H103       25.0276   -3.5522   -3.7371 H         1 UNK         0.0786 
    104 H104       26.2849   -1.3425   -1.9941 H         1 UNK         0.2977 
    105 H105       25.8144    0.5793   -5.0281 H         1 UNK         0.3127 
    106 H106       27.7213    2.7061   -5.0532 H         1 UNK         0.0770 
    107 H107       24.6747    2.8385   -4.7292 H         1 UNK         0.0814 
    108 H108       25.8204    4.0919   -4.2816 H         1 UNK         0.0814 
    109 H109       25.8277    2.5564   -3.4264 H         1 UNK         0.0814 
    110 H110       25.0597    1.8448   -7.2731 H         1 UNK         0.2983 
    111 H111       25.3903    4.1209   -9.0224 H         1 UNK         0.0947 
    112 H112       23.8695    2.8203  -10.5221 H         1 UNK         0.0806 
    113 H113       23.2416    2.9109   -8.8836 H         1 UNK         0.0806 
    114 H114       23.9908    1.4258   -9.4575 H         1 UNK         0.0806 
    115 H115       26.2549    0.6252   -9.4009 H         1 UNK         0.3000 
    116 H116       28.1077    1.2632  -11.6357 H         1 UNK         0.0850 
    117 H117       28.1118   -1.1974  -11.9372 H         1 UNK         0.0810 
    118 H118       26.4653   -0.5831  -11.9446 H         1 UNK         0.0810 
    119 H119       27.0942   -1.4070  -10.5198 H         1 UNK         0.0810 
    120 H120       29.4090    2.4772  -10.0139 H         1 UNK         0.3040 
    121 H121       30.8162    1.1586   -7.8930 H         1 UNK         0.0766 
    122 H122       32.0287    3.3281   -7.7509 H         1 UNK         0.0812 
    123 H123       30.2937    3.5745   -7.8603 H         1 UNK         0.0812 
    124 H124       31.3159    3.8465   -9.2729 H         1 UNK         0.0812 
    125 H125       31.3311   -0.6487   -9.5152 H         1 UNK         0.3205 
    126 H126       33.3695   -0.5690  -11.3916 H         1 UNK         0.0754 
    127 H127       33.4830   -3.0468  -11.0302 H         1 UNK         0.0769 
    128 H128       31.8205   -2.4834  -11.0654 H         1 UNK         0.0769 
    129 H129       32.5868   -2.8766   -9.5263 H         1 UNK         0.0769 
    130 H130       33.8073   -0.4144   -7.9428 H         1 UNK         0.2981 
    131 H131       36.5819   -1.1942   -7.8750 H         1 UNK         0.0541 
    132 H132       35.1115    1.7521   -9.0949 H         1 UNK         0.3459 
    133 H133       36.5849    2.6906   -9.0360 H         1 UNK         0.3459 
    134 H134       35.0745    0.4816   -5.8139 H         1 UNK         0.0612 
    135 H135       36.5943   -0.3365   -5.5769 H         1 UNK         0.0612 
    136 H136       33.3817   -0.4879   -4.2169 H         1 UNK         0.0624 
    137 H137       32.7625   -0.6472   -5.8435 H         1 UNK         0.0624 
@<TRIPOS>BOND
     1    1    2 1    
     2    1   72 1    
     3    1   73 1    
     4    1   74 1    
     5    2    3 2    
     6    2    4 am   BACKBONE|DICT|INTERRES
     7    4    5 1    
     8    4   75 1    
     9    5    6 1    
    10    5   35 1    
    11    5   76 1    
    12    6    7 1    
    13    6   77 1    
    14    6   78 1    
    15    7    8 1    
    16    8    9 1    
    17    8   79 1    
    18    8   80 1    
    19    9   10 ar   
    20    9   14 ar   
    21   10   11 ar   
    22   10   81 1    
    23   11   12 ar   
    24   11   71 1    
    25   12   13 ar   
    26   12   82 1    
    27   13   14 ar   
    28   13   15 1    
    29   14   83 1    
    30   15   16 1    
    31   15   84 1    
    32   15   85 1    
    33   16   17 1    
    34   17   18 1    
    35   17   86 1    
    36   17   87 1    
    37   18   19 1    
    38   18   37 1    
    39   18   88 1    
    40   19   20 am   BACKBONE|DICT|INTERRES
    41   19   89 1    
    42   20   21 2    
    43   20   22 1    
    44   22   23 1    
    45   22   24 1    
    46   22   90 1    
    47   23   91 1    
    48   23   92 1    
    49   23   93 1    
    50   24   25 am   BACKBONE|DICT|INTERRES
    51   24   94 1    
    52   25   26 2    
    53   25   27 1    
    54   27   28 1    
    55   27   29 1    
    56   27   95 1    
    57   28   96 1    
    58   28   97 1    
    59   28   98 1    
    60   29   30 am   BACKBONE|DICT|INTERRES
    61   29   99 1    
    62   30   31 2    
    63   30   32 1    
    64   32   33 1    
    65   32   34 1    
    66   32  100 1    
    67   33  101 1    
    68   33  102 1    
    69   33  103 1    
    70   34   35 am   BACKBONE|DICT|INTERRES
    71   34  104 1    
    72   35   36 2    
    73   37   38 2    
    74   37   39 am   BACKBONE|DICT|INTERRES
    75   39   40 1    
    76   39  105 1    
    77   40   41 1    
    78   40   42 1    
    79   40  106 1    
    80   41  107 1    
    81   41  108 1    
    82   41  109 1    
    83   42   43 2    
    84   42   44 am   BACKBONE|DICT|INTERRES
    85   44   45 1    
    86   44  110 1    
    87   45   46 1    
    88   45   47 1    
    89   45  111 1    
    90   46  112 1    
    91   46  113 1    
    92   46  114 1    
    93   47   48 2    
    94   47   49 am   BACKBONE|DICT|INTERRES
    95   49   50 1    
    96   49  115 1    
    97   50   51 1    
    98   50   52 1    
    99   50  116 1    
   100   51  117 1    
   101   51  118 1    
   102   51  119 1    
   103   52   53 2    
   104   52   54 am   BACKBONE|DICT|INTERRES
   105   54   55 1    
   106   54  120 1    
   107   55   56 1    
   108   55   57 1    
   109   55  121 1    
   110   56  122 1    
   111   56  123 1    
   112   56  124 1    
   113   57   58 2    
   114   57   59 am   BACKBONE|DICT|INTERRES
   115   59   60 1    
   116   59  125 1    
   117   60   61 1    
   118   60   62 1    
   119   60  126 1    
   120   61  127 1    
   121   61  128 1    
   122   61  129 1    
   123   62   63 2    
   124   62   64 am   BACKBONE|DICT|INTERRES
   125   64   65 1    
   126   64  130 1    
   127   65   66 1    
   128   65   69 1    
   129   65  131 1    
   130   66   67 am   BACKBONE|DICT|INTERRES
   131   66   68 2    
   132   67  132 1    
   133   67  133 1    
   134   69   70 1    
   135   69  134 1    
   136   69  135 1    
   137   70   71 1    
   138   71  136 1    
   139   71  137 1    
@<TRIPOS>SUBSTRUCTURE
     1 UNK         1 GROUP             0       ****    0 ROOT    
