@<TRIPOS>MOLECULE
3R137
137   139    1
SMALL
USER_CHARGES


@<TRIPOS>ATOM
      1 CA         25.2174   -4.7740   -3.0502 C.3       0 UNK        -0.2020 
      2 C          25.4769   -4.1450   -1.6909 C.2       0 UNK         0.4855 
      3 O          24.6040   -4.1665   -0.8221 O.2       0 UNK        -0.5197 
      4 N          26.6731   -3.5777   -1.4984 N.am      1 UNK        -0.4892 
      5 CA         27.1221   -2.8895   -0.2826 C.3       1 UNK         0.0835 
      6 C6         28.6709   -2.9184   -0.1492 C.3       12 UNK        -0.0855 
      7 S7         29.5633   -2.4066   -1.6608 S.3       12 UNK        -0.2931 
      8 C8         30.3214   -3.9684   -2.2057 C.3       12 UNK         0.0378 
      9 C9         30.8520   -3.8424   -3.6267 C.ar      12 UNK        -0.0802 
     10 C10        32.0556   -3.1738   -3.8712 C.ar      12 UNK        -0.0944 
     11 C11        32.5497   -3.0584   -5.1733 C.ar      12 UNK        -0.0787 
     12 C12        31.8107   -3.5904   -6.2336 C.ar      12 UNK        -0.0862 
     13 C13        30.5966   -4.2496   -6.0135 C.ar      12 UNK        -0.0733 
     14 C14        30.1416   -4.3982   -4.6963 C.ar      12 UNK        -0.0832 
     15 C15        29.8512   -4.7908   -7.2382 C.3       12 UNK         0.0240 
     16 S16        28.1696   -5.4745   -6.9919 S.3       12 UNK        -0.2522 
     17 C17        27.1669   -4.1233   -6.2793 C.3       12 UNK        -0.0967 
     18 CA         26.8310   -2.9362   -7.2206 C.3       5 UNK         0.0660 
     19 N          25.5535   -2.3329   -6.8266 N.am      5 UNK        -0.4015 
     20 C          25.0082   -1.2012   -7.2900 C.2       4 UNK         0.4946 
     21 O          25.4524   -0.5536   -8.2377 O.2       4 UNK        -0.5353 
     22 CA         23.8071   -0.6519   -6.5015 C.3       4 UNK         0.0277 
     23 CB         22.9246   -1.7563   -5.8777 C.3       4 UNK        -0.1981 
     24 N          24.2169    0.3181   -5.4746 N.am      4 UNK        -0.4209 
     25 C          25.0929    0.1398   -4.4708 C.2       3 UNK         0.4942 
     26 O          25.7497   -0.8910   -4.2998 O.2       3 UNK        -0.5208 
     27 CA         25.3020    1.3100   -3.4889 C.3       3 UNK         0.0250 
     28 CB         24.3844    2.5322   -3.7285 C.3       3 UNK        -0.1990 
     29 N          25.2133    0.8457   -2.0994 N.am      3 UNK        -0.4232 
     30 C          24.1418    0.3121   -1.4938 C.2       2 UNK         0.4993 
     31 O          23.0352    0.1901   -2.0233 O.2       2 UNK        -0.5286 
     32 CA         24.3647   -0.2012   -0.0603 C.3       2 UNK         0.0209 
     33 CB         23.0443   -0.4912    0.6783 C.3       2 UNK        -0.1931 
     34 N          25.1693   -1.4221   -0.0816 N.am      2 UNK        -0.4546 
     35 C          26.5027   -1.4745   -0.1820 C.2       1 UNK         0.5154 
     36 O          27.2094   -0.4646   -0.2180 O.2       1 UNK        -0.5181 
     37 C          27.9687   -1.8949   -7.2148 C.2       5 UNK         0.5014 
     38 O          28.6461   -1.7216   -8.2274 O.2       5 UNK        -0.5248 
     39 N          28.1142   -1.1789   -6.0903 N.am      6 UNK        -0.4434 
     40 CA         29.1401   -0.1547   -5.9022 C.3       6 UNK         0.0363 
     41 CB         29.2948    0.1562   -4.4077 C.3       6 UNK        -0.1936 
     42 C          28.8890    1.1300   -6.7034 C.2       6 UNK         0.5081 
     43 O          29.8468    1.8570   -6.9608 O.2       6 UNK        -0.5248 
     44 N          27.6374    1.3924   -7.1027 N.am      7 UNK        -0.4718 
     45 CA         27.3024    2.4908   -8.0104 C.3       7 UNK         0.0273 
     46 CB         25.8172    2.8630   -7.8755 C.3       7 UNK        -0.1935 
     47 C          27.6633    2.1297   -9.4589 C.2       7 UNK         0.5018 
     48 O          28.2786    2.9432  -10.1475 O.2       7 UNK        -0.5186 
     49 N          27.3145    0.9037   -9.8762 N.am      8 UNK        -0.4240 
     50 CA         27.6271    0.3428  -11.1925 C.3       8 UNK         0.0235 
     51 CB         26.8772   -0.9872  -11.3731 C.3       8 UNK        -0.2000 
     52 C          29.1363    0.1554  -11.4231 C.2       8 UNK         0.4941 
     53 O          29.6346    0.5194  -12.4888 O.2       8 UNK        -0.5273 
     54 N          29.8375   -0.3893  -10.4195 N.am      9 UNK        -0.4262 
     55 CA         31.2866   -0.6111  -10.4420 C.3       9 UNK         0.0264 
     56 CB         31.6363   -1.7036   -9.4196 C.3       9 UNK        -0.1955 
     57 C          32.1176    0.6574  -10.1717 C.2       9 UNK         0.5031 
     58 O          33.3299    0.6242  -10.3880 O.2       9 UNK        -0.5390 
     59 N          31.4707    1.7320   -9.6935 N.am      10 UNK        -0.4204 
     60 CA         32.0586    3.0063   -9.2586 C.3       10 UNK         0.0237 
     61 CB         32.6962    3.7625  -10.4441 C.3       10 UNK        -0.1985 
     62 C          33.0086    2.8478   -8.0523 C.2       10 UNK         0.4970 
     63 O          34.0310    3.5318   -7.9727 O.2       10 UNK        -0.4914 
     64 N          32.6343    1.9561   -7.1286 N.am      11 UNK        -0.4285 
     65 CA         33.2832    1.7531   -5.8263 C.3       11 UNK         0.1007 
     66 C          32.7851    2.7583   -4.7507 C.2       11 UNK         0.5703 
     67 N          31.6142    3.3674   -4.9088 N.am      11 UNK        -0.7361 
     68 O          33.4774    2.9952   -3.7639 O.2       11 UNK        -0.4986 
     69 C69        33.1245    0.2951   -5.3190 C.3       12 UNK        -0.0947 
     70 S70        33.7976   -0.9302   -6.4857 S.3       12 UNK        -0.2240 
     71 C71        33.9054   -2.4114   -5.4328 C.3       12 UNK         0.0194 
     72 H72        24.6919   -4.0699   -3.6941 H         1 UNK         0.0906 
     73 H73        26.1468   -5.0678   -3.5367 H         1 UNK         0.0906 
     74 H74        24.6006   -5.6661   -2.9432 H         1 UNK         0.0906 
     75 H75        27.3353   -3.5360   -2.2602 H         1 UNK         0.3140 
     76 H76        26.7307   -3.4392    0.5769 H         1 UNK         0.1085 
     77 H77        28.9865   -3.9276    0.1198 H         1 UNK         0.0836 
     78 H78        28.9998   -2.2886    0.6797 H         1 UNK         0.0836 
     79 H79        31.1330   -4.2347   -1.5268 H         1 UNK         0.0731 
     80 H80        29.5877   -4.7738   -2.1434 H         1 UNK         0.0731 
     81 H81        32.6125   -2.7573   -3.0429 H         1 UNK         0.1312 
     82 H82        32.1943   -3.4987   -7.2403 H         1 UNK         0.1406 
     83 H83        29.2355   -4.9472   -4.4900 H         1 UNK         0.1631 
     84 H84        30.4602   -5.5872   -7.6679 H         1 UNK         0.0717 
     85 H85        29.8019   -4.0185   -8.0045 H         1 UNK         0.0717 
     86 H86        26.2372   -4.6186   -5.9947 H         1 UNK         0.0934 
     87 H87        27.5860   -3.7775   -5.3351 H         1 UNK         0.0934 
     88 H88        26.7094   -3.3041   -8.2412 H         1 UNK         0.0739 
     89 H89        25.1172   -2.7302   -6.0086 H         1 UNK         0.3093 
     90 H90        23.1933   -0.1081   -7.2216 H         1 UNK         0.0818 
     91 H91        21.9988   -1.3344   -5.4860 H         1 UNK         0.0819 
     92 H92        22.6441   -2.5055   -6.6196 H         1 UNK         0.0819 
     93 H93        23.4166   -2.2711   -5.0521 H         1 UNK         0.0819 
     94 H94        23.7516    1.2135   -5.5233 H         1 UNK         0.3041 
     95 H95        26.3297    1.6444   -3.6336 H         1 UNK         0.0784 
     96 H96        24.5531    2.9714   -4.7115 H         1 UNK         0.0793 
     97 H97        23.3261    2.2795   -3.6531 H         1 UNK         0.0793 
     98 H98        24.5843    3.3162   -2.9978 H         1 UNK         0.0793 
     99 H99        26.0917    0.8003   -1.5944 H         1 UNK         0.3024 
    100 H100       24.8949    0.5767    0.4947 H         1 UNK         0.1171 
    101 H101       22.4113    0.3966    0.7090 H         1 UNK         0.0786 
    102 H102       23.2262   -0.7944    1.7095 H         1 UNK         0.0786 
    103 H103       22.4733   -1.2838    0.1926 H         1 UNK         0.0786 
    104 H104       24.6670   -2.3029   -0.1499 H         1 UNK         0.2977 
    105 H105       27.4533   -1.3129   -5.3305 H         1 UNK         0.3127 
    106 H106       30.0873   -0.5653   -6.2588 H         1 UNK         0.0770 
    107 H107       28.3404    0.3741   -3.9300 H         1 UNK         0.0814 
    108 H108       29.9484    1.0132   -4.2410 H         1 UNK         0.0814 
    109 H109       29.7453   -0.6891   -3.8916 H         1 UNK         0.0814 
    110 H110       26.9135    0.7135   -6.9148 H         1 UNK         0.2983 
    111 H111       27.8898    3.3692   -7.7317 H         1 UNK         0.0947 
    112 H112       25.5656    3.6926   -8.5376 H         1 UNK         0.0806 
    113 H113       25.5826    3.1803   -6.8605 H         1 UNK         0.0806 
    114 H114       25.1571    2.0348   -8.1316 H         1 UNK         0.0806 
    115 H115       26.7739    0.3134   -9.2469 H         1 UNK         0.3000 
    116 H116       27.2625    1.0445  -11.9458 H         1 UNK         0.0850 
    117 H117       27.0790   -1.4206  -12.3536 H         1 UNK         0.0810 
    118 H118       25.7990   -0.8466  -11.2952 H         1 UNK         0.0810 
    119 H119       27.1709   -1.7222  -10.6225 H         1 UNK         0.0810 
    120 H120       29.3386   -0.7315   -9.5980 H         1 UNK         0.3040 
    121 H121       31.5658   -0.9749  -11.4331 H         1 UNK         0.0766 
    122 H122       32.7048   -1.9231   -9.4270 H         1 UNK         0.0812 
    123 H123       31.1122   -2.6336   -9.6391 H         1 UNK         0.0812 
    124 H124       31.3729   -1.4003   -8.4056 H         1 UNK         0.0812 
    125 H125       30.4725    1.6495   -9.5556 H         1 UNK         0.3205 
    126 H126       31.2229    3.6098   -8.9005 H         1 UNK         0.0754 
    127 H127       32.9990    4.7677  -10.1484 H         1 UNK         0.0769 
    128 H128       31.9930    3.8670  -11.2704 H         1 UNK         0.0769 
    129 H129       33.5843    3.2543  -10.8206 H         1 UNK         0.0769 
    130 H130       31.7187    1.5335   -7.2334 H         1 UNK         0.2981 
    131 H131       34.3521    1.9388   -5.9477 H         1 UNK         0.0541 
    132 H132       31.0233    3.1374   -5.6972 H         1 UNK         0.3459 
    133 H133       31.3004    4.0251   -4.2135 H         1 UNK         0.3459 
    134 H134       32.0772    0.0564   -5.1378 H         1 UNK         0.0612 
    135 H135       33.6374    0.1716   -4.3634 H         1 UNK         0.0612 
    136 H136       34.4053   -2.1548   -4.4976 H         1 UNK         0.0624 
    137 H137       34.5474   -3.1399   -5.9296 H         1 UNK         0.0624 
@<TRIPOS>BOND
     1    1    2 1    
     2    1   72 1    
     3    1   73 1    
     4    1   74 1    
     5    2    3 2    
     6    2    4 am   BACKBONE|DICT|INTERRES
     7    4    5 1    
     8    4   75 1    
     9    5    6 1    
    10    5   35 1    
    11    5   76 1    
    12    6    7 1    
    13    6   77 1    
    14    6   78 1    
    15    7    8 1    
    16    8    9 1    
    17    8   79 1    
    18    8   80 1    
    19    9   10 ar   
    20    9   14 ar   
    21   10   11 ar   
    22   10   81 1    
    23   11   12 ar   
    24   11   71 1    
    25   12   13 ar   
    26   12   82 1    
    27   13   14 ar   
    28   13   15 1    
    29   14   83 1    
    30   15   16 1    
    31   15   84 1    
    32   15   85 1    
    33   16   17 1    
    34   17   18 1    
    35   17   86 1    
    36   17   87 1    
    37   18   19 1    
    38   18   37 1    
    39   18   88 1    
    40   19   20 am   BACKBONE|DICT|INTERRES
    41   19   89 1    
    42   20   21 2    
    43   20   22 1    
    44   22   23 1    
    45   22   24 1    
    46   22   90 1    
    47   23   91 1    
    48   23   92 1    
    49   23   93 1    
    50   24   25 am   BACKBONE|DICT|INTERRES
    51   24   94 1    
    52   25   26 2    
    53   25   27 1    
    54   27   28 1    
    55   27   29 1    
    56   27   95 1    
    57   28   96 1    
    58   28   97 1    
    59   28   98 1    
    60   29   30 am   BACKBONE|DICT|INTERRES
    61   29   99 1    
    62   30   31 2    
    63   30   32 1    
    64   32   33 1    
    65   32   34 1    
    66   32  100 1    
    67   33  101 1    
    68   33  102 1    
    69   33  103 1    
    70   34   35 am   BACKBONE|DICT|INTERRES
    71   34  104 1    
    72   35   36 2    
    73   37   38 2    
    74   37   39 am   BACKBONE|DICT|INTERRES
    75   39   40 1    
    76   39  105 1    
    77   40   41 1    
    78   40   42 1    
    79   40  106 1    
    80   41  107 1    
    81   41  108 1    
    82   41  109 1    
    83   42   43 2    
    84   42   44 am   BACKBONE|DICT|INTERRES
    85   44   45 1    
    86   44  110 1    
    87   45   46 1    
    88   45   47 1    
    89   45  111 1    
    90   46  112 1    
    91   46  113 1    
    92   46  114 1    
    93   47   48 2    
    94   47   49 am   BACKBONE|DICT|INTERRES
    95   49   50 1    
    96   49  115 1    
    97   50   51 1    
    98   50   52 1    
    99   50  116 1    
   100   51  117 1    
   101   51  118 1    
   102   51  119 1    
   103   52   53 2    
   104   52   54 am   BACKBONE|DICT|INTERRES
   105   54   55 1    
   106   54  120 1    
   107   55   56 1    
   108   55   57 1    
   109   55  121 1    
   110   56  122 1    
   111   56  123 1    
   112   56  124 1    
   113   57   58 2    
   114   57   59 am   BACKBONE|DICT|INTERRES
   115   59   60 1    
   116   59  125 1    
   117   60   61 1    
   118   60   62 1    
   119   60  126 1    
   120   61  127 1    
   121   61  128 1    
   122   61  129 1    
   123   62   63 2    
   124   62   64 am   BACKBONE|DICT|INTERRES
   125   64   65 1    
   126   64  130 1    
   127   65   66 1    
   128   65   69 1    
   129   65  131 1    
   130   66   67 am   BACKBONE|DICT|INTERRES
   131   66   68 2    
   132   67  132 1    
   133   67  133 1    
   134   69   70 1    
   135   69  134 1    
   136   69  135 1    
   137   70   71 1    
   138   71  136 1    
   139   71  137 1    
@<TRIPOS>SUBSTRUCTURE
     1 UNK         1 GROUP             0       ****    0 ROOT    
