@<TRIPOS>MOLECULE
3R137
137   139    1
SMALL
USER_CHARGES


@<TRIPOS>ATOM
      1 CA         26.7338   -6.5353    0.0721 C.3       0 UNK        -0.2020 
      2 C          26.9230   -5.0817    0.4789 C.2       0 UNK         0.4855 
      3 O          26.4100   -4.6636    1.5171 O.2       0 UNK        -0.5197 
      4 N          27.6552   -4.3084   -0.3329 N.am      1 UNK        -0.4892 
      5 CA         27.9344   -2.8834   -0.1043 C.3       1 UNK         0.0835 
      6 C6         29.1454   -2.3966   -0.9360 C.3       12 UNK        -0.0855 
      7 S7         30.7176   -3.1494   -0.3908 S.3       12 UNK        -0.2931 
      8 C8         30.9556   -4.5219   -1.5693 C.3       12 UNK         0.0378 
      9 C9         30.9675   -4.0646   -3.0222 C.ar      12 UNK        -0.0802 
     10 C10        31.9233   -3.1439   -3.4654 C.ar      12 UNK        -0.0944 
     11 C11        31.9428   -2.7280   -4.7991 C.ar      12 UNK        -0.0787 
     12 C12        30.9886   -3.2339   -5.6853 C.ar      12 UNK        -0.0862 
     13 C13        30.0353   -4.1652   -5.2650 C.ar      12 UNK        -0.0733 
     14 C14        30.0351   -4.5814   -3.9292 C.ar      12 UNK        -0.0832 
     15 C15        29.0660   -4.7507   -6.2908 C.3       12 UNK         0.0240 
     16 S16        27.3602   -5.0020   -5.6915 S.3       12 UNK        -0.2522 
     17 C17        26.8471   -3.3250   -5.2024 C.3       12 UNK        -0.0967 
     18 CA         26.5594   -2.3805   -6.4060 C.3       5 UNK         0.0660 
     19 N          25.2965   -1.6527   -6.2444 N.am      5 UNK        -0.4015 
     20 C          24.7012   -0.9128   -7.1919 C.2       4 UNK         0.4946 
     21 O          25.1187   -0.8047   -8.3438 O.2       4 UNK        -0.5353 
     22 CA         23.4447   -0.1287   -6.7741 C.3       4 UNK         0.0277 
     23 CB         22.1900   -1.0053   -6.9132 C.3       4 UNK        -0.1981 
     24 N          23.5276    0.3988   -5.4094 N.am      4 UNK        -0.4209 
     25 C          24.4011    1.3359   -5.0125 C.2       3 UNK         0.4942 
     26 O          25.1926    1.8972   -5.7669 O.2       3 UNK        -0.5208 
     27 CA         24.4396    1.6630   -3.5109 C.3       3 UNK         0.0250 
     28 CB         23.4107    2.7522   -3.1689 C.3       3 UNK        -0.1990 
     29 N          24.2308    0.4958   -2.6466 N.am      3 UNK        -0.4232 
     30 C          25.0002   -0.6016   -2.6431 C.2       2 UNK         0.4993 
     31 O          25.9487   -0.7811   -3.4136 O.2       2 UNK        -0.5286 
     32 CA         24.6001   -1.7105   -1.6574 C.3       2 UNK         0.0209 
     33 CB         23.5963   -2.6746   -2.3113 C.3       2 UNK        -0.1931 
     34 N          25.7679   -2.4677   -1.2072 N.am      2 UNK        -0.4546 
     35 C          26.7083   -1.9878   -0.3806 C.2       1 UNK         0.5154 
     36 O          26.6374   -0.8822    0.1595 O.2       1 UNK        -0.5181 
     37 C          27.7164   -1.3886   -6.6203 C.2       5 UNK         0.5014 
     38 O          28.4781   -1.5218   -7.5817 O.2       5 UNK        -0.5248 
     39 N          27.7869   -0.3882   -5.7292 N.am      6 UNK        -0.4434 
     40 CA         28.7726    0.6879   -5.7694 C.3       6 UNK         0.0363 
     41 CB         28.6403    1.5723   -4.5210 C.3       6 UNK        -0.1936 
     42 C          28.6959    1.5200   -7.0569 C.2       6 UNK         0.5081 
     43 O          29.7326    1.7681   -7.6693 O.2       6 UNK        -0.5248 
     44 N          27.4764    1.8920   -7.4705 N.am      7 UNK        -0.4718 
     45 CA         27.2025    2.6192   -8.7117 C.3       7 UNK         0.0273 
     46 CB         25.7284    3.0520   -8.7450 C.3       7 UNK        -0.1935 
     47 C          27.5569    1.8235   -9.9782 C.2       7 UNK         0.5018 
     48 O          28.0870    2.4138  -10.9196 O.2       7 UNK        -0.5186 
     49 N          27.2756    0.5112   -9.9819 N.am      8 UNK        -0.4240 
     50 CA         27.5968   -0.3956  -11.0880 C.3       8 UNK         0.0235 
     51 CB         26.9163   -1.7570  -10.8717 C.3       8 UNK        -0.2000 
     52 C          29.1092   -0.5709  -11.2954 C.2       8 UNK         0.4941 
     53 O          29.5691   -0.5268  -12.4373 O.2       8 UNK        -0.5273 
     54 N          29.8540   -0.7541  -10.1965 N.am      9 UNK        -0.4262 
     55 CA         31.3152   -0.8727  -10.2180 C.3       9 UNK         0.0264 
     56 CB         31.7769   -1.5912   -8.9451 C.3       9 UNK        -0.1955 
     57 C          32.0413    0.4766  -10.3554 C.2       9 UNK         0.5031 
     58 O          33.1897    0.4904  -10.8007 O.2       9 UNK        -0.5390 
     59 N          31.3789    1.5667   -9.9426 N.am      10 UNK        -0.4204 
     60 CA         31.8941    2.9323   -9.7950 C.3       10 UNK         0.0237 
     61 CB         32.3250    3.5263  -11.1535 C.3       10 UNK        -0.1985 
     62 C          32.9805    3.0363   -8.7042 C.2       10 UNK         0.4970 
     63 O          33.9062    3.8393   -8.8392 O.2       10 UNK        -0.4914 
     64 N          32.8510    2.2226   -7.6472 N.am      11 UNK        -0.4285 
     65 CA         33.7415    2.2168   -6.4788 C.3       11 UNK         0.1007 
     66 C          33.3053    3.2384   -5.3909 C.2       11 UNK         0.5703 
     67 N          34.1680    3.5136   -4.4213 N.am      11 UNK        -0.7361 
     68 O          32.2013    3.7810   -5.4073 O.2       11 UNK        -0.4986 
     69 C69        33.9613    0.7815   -5.9246 C.3       12 UNK        -0.0947 
     70 S70        32.4631   -0.0456   -5.2927 S.3       12 UNK        -0.2240 
     71 C71        33.0218   -1.7750   -5.2953 C.3       12 UNK         0.0194 
     72 H72        27.1303   -7.1948    0.8437 H         1 UNK         0.0906 
     73 H73        25.6737   -6.7551   -0.0518 H         1 UNK         0.0906 
     74 H74        27.2399   -6.7679   -0.8647 H         1 UNK         0.0906 
     75 H75        28.0600   -4.7060   -1.1669 H         1 UNK         0.3140 
     76 H76        28.1761   -2.7523    0.9533 H         1 UNK         0.1085 
     77 H77        29.2698   -1.3167   -0.8297 H         1 UNK         0.0836 
     78 H78        28.9808   -2.5665   -2.0011 H         1 UNK         0.0836 
     79 H79        31.9057   -5.0100   -1.3478 H         1 UNK         0.0731 
     80 H80        30.1844   -5.2742   -1.4004 H         1 UNK         0.0731 
     81 H81        32.6557   -2.7562   -2.7702 H         1 UNK         0.1312 
     82 H82        30.9996   -2.9182   -6.7154 H         1 UNK         0.1406 
     83 H83        29.3126   -5.3156   -3.6005 H         1 UNK         0.1631 
     84 H84        29.4580   -5.7153   -6.6152 H         1 UNK         0.0717 
     85 H85        29.0279   -4.1270   -7.1848 H         1 UNK         0.0717 
     86 H86        25.9439   -3.4615   -4.6073 H         1 UNK         0.0934 
     87 H87        27.5746   -2.9119   -4.4996 H         1 UNK         0.0934 
     88 H88        26.4629   -2.9738   -7.3180 H         1 UNK         0.0739 
     89 H89        24.9287   -1.6098   -5.3053 H         1 UNK         0.3093 
     90 H90        23.3455    0.7196   -7.4549 H         1 UNK         0.0818 
     91 H91        21.2836   -0.4370   -6.7037 H         1 UNK         0.0819 
     92 H92        22.0982   -1.3940   -7.9286 H         1 UNK         0.0819 
     93 H93        22.2144   -1.8615   -6.2379 H         1 UNK         0.0819 
     94 H94        22.9027    0.0027   -4.7226 H         1 UNK         0.3041 
     95 H95        25.4348    2.0548   -3.2907 H         1 UNK         0.0784 
     96 H96        23.5603    3.6376   -3.7888 H         1 UNK         0.0793 
     97 H97        22.3878    2.4101   -3.3312 H         1 UNK         0.0793 
     98 H98        23.4986    3.0696   -2.1297 H         1 UNK         0.0793 
     99 H99        23.4632    0.5545   -1.9924 H         1 UNK         0.3024 
    100 H100       24.1324   -1.2524   -0.7826 H         1 UNK         0.1171 
    101 H101       22.6957   -2.1482   -2.6304 H         1 UNK         0.0786 
    102 H102       23.2822   -3.4506   -1.6128 H         1 UNK         0.0786 
    103 H103       24.0145   -3.1665   -3.1896 H         1 UNK         0.0786 
    104 H104       25.9114   -3.3794   -1.6140 H         1 UNK         0.2977 
    105 H105       27.1221   -0.3773   -4.9600 H         1 UNK         0.3127 
    106 H106       29.7506    0.2112   -5.7484 H         1 UNK         0.0770 
    107 H107       27.6717    2.0709   -4.4792 H         1 UNK         0.0814 
    108 H108       29.4089    2.3467   -4.5138 H         1 UNK         0.0814 
    109 H109       28.7583    0.9888   -3.6077 H         1 UNK         0.0814 
    110 H110       26.6749    1.6947   -6.8740 H         1 UNK         0.2983 
    111 H111       27.8215    3.5190   -8.7078 H         1 UNK         0.0947 
    112 H112       25.5033    3.6079   -9.6562 H         1 UNK         0.0806 
    113 H113       25.4869    3.7000   -7.9023 H         1 UNK         0.0806 
    114 H114       25.0566    2.1935   -8.7098 H         1 UNK         0.0806 
    115 H115       26.7909    0.1075   -9.1864 H         1 UNK         0.3000 
    116 H116       27.1896    0.0416  -12.0023 H         1 UNK         0.0850 
    117 H117       27.1590   -2.4493  -11.6789 H         1 UNK         0.0810 
    118 H118       25.8312   -1.6563  -10.8485 H         1 UNK         0.0810 
    119 H119       27.2280   -2.2222   -9.9359 H         1 UNK         0.0810 
    120 H120       29.3905   -0.8305   -9.2946 H         1 UNK         0.3040 
    121 H121       31.6050   -1.4865  -11.0738 H         1 UNK         0.0766 
    122 H122       32.8644   -1.6688   -8.9059 H         1 UNK         0.0812 
    123 H123       31.3783   -2.6046   -8.9101 H         1 UNK         0.0812 
    124 H124       31.4520   -1.0596   -8.0497 H         1 UNK         0.0812 
    125 H125       30.4724    1.4219   -9.5089 H         1 UNK         0.3205 
    126 H126       31.0537    3.5268   -9.4336 H         1 UNK         0.0754 
    127 H127       32.5536    4.5886  -11.0595 H         1 UNK         0.0769 
    128 H128       31.5321    3.4307  -11.8954 H         1 UNK         0.0769 
    129 H129       33.2161    3.0375  -11.5481 H         1 UNK         0.0769 
    130 H130       32.0042    1.6752   -7.5620 H         1 UNK         0.2981 
    131 H131       34.7219    2.5583   -6.8165 H         1 UNK         0.0541 
    132 H132       33.9032    4.1709   -3.7046 H         1 UNK         0.3459 
    133 H133       35.0763    3.0779   -4.3903 H         1 UNK         0.3459 
    134 H134       34.7060    0.7903   -5.1271 H         1 UNK         0.0612 
    135 H135       34.3867    0.1611   -6.7151 H         1 UNK         0.0612 
    136 H136       33.3230   -2.0555   -6.3056 H         1 UNK         0.0624 
    137 H137       33.9145   -1.8618   -4.6738 H         1 UNK         0.0624 
@<TRIPOS>BOND
     1    1    2 1    
     2    1   72 1    
     3    1   73 1    
     4    1   74 1    
     5    2    3 2    
     6    2    4 am   BACKBONE|DICT|INTERRES
     7    4    5 1    
     8    4   75 1    
     9    5    6 1    
    10    5   35 1    
    11    5   76 1    
    12    6    7 1    
    13    6   77 1    
    14    6   78 1    
    15    7    8 1    
    16    8    9 1    
    17    8   79 1    
    18    8   80 1    
    19    9   10 ar   
    20    9   14 ar   
    21   10   11 ar   
    22   10   81 1    
    23   11   12 ar   
    24   11   71 1    
    25   12   13 ar   
    26   12   82 1    
    27   13   14 ar   
    28   13   15 1    
    29   14   83 1    
    30   15   16 1    
    31   15   84 1    
    32   15   85 1    
    33   16   17 1    
    34   17   18 1    
    35   17   86 1    
    36   17   87 1    
    37   18   19 1    
    38   18   37 1    
    39   18   88 1    
    40   19   20 am   BACKBONE|DICT|INTERRES
    41   19   89 1    
    42   20   21 2    
    43   20   22 1    
    44   22   23 1    
    45   22   24 1    
    46   22   90 1    
    47   23   91 1    
    48   23   92 1    
    49   23   93 1    
    50   24   25 am   BACKBONE|DICT|INTERRES
    51   24   94 1    
    52   25   26 2    
    53   25   27 1    
    54   27   28 1    
    55   27   29 1    
    56   27   95 1    
    57   28   96 1    
    58   28   97 1    
    59   28   98 1    
    60   29   30 am   BACKBONE|DICT|INTERRES
    61   29   99 1    
    62   30   31 2    
    63   30   32 1    
    64   32   33 1    
    65   32   34 1    
    66   32  100 1    
    67   33  101 1    
    68   33  102 1    
    69   33  103 1    
    70   34   35 am   BACKBONE|DICT|INTERRES
    71   34  104 1    
    72   35   36 2    
    73   37   38 2    
    74   37   39 am   BACKBONE|DICT|INTERRES
    75   39   40 1    
    76   39  105 1    
    77   40   41 1    
    78   40   42 1    
    79   40  106 1    
    80   41  107 1    
    81   41  108 1    
    82   41  109 1    
    83   42   43 2    
    84   42   44 am   BACKBONE|DICT|INTERRES
    85   44   45 1    
    86   44  110 1    
    87   45   46 1    
    88   45   47 1    
    89   45  111 1    
    90   46  112 1    
    91   46  113 1    
    92   46  114 1    
    93   47   48 2    
    94   47   49 am   BACKBONE|DICT|INTERRES
    95   49   50 1    
    96   49  115 1    
    97   50   51 1    
    98   50   52 1    
    99   50  116 1    
   100   51  117 1    
   101   51  118 1    
   102   51  119 1    
   103   52   53 2    
   104   52   54 am   BACKBONE|DICT|INTERRES
   105   54   55 1    
   106   54  120 1    
   107   55   56 1    
   108   55   57 1    
   109   55  121 1    
   110   56  122 1    
   111   56  123 1    
   112   56  124 1    
   113   57   58 2    
   114   57   59 am   BACKBONE|DICT|INTERRES
   115   59   60 1    
   116   59  125 1    
   117   60   61 1    
   118   60   62 1    
   119   60  126 1    
   120   61  127 1    
   121   61  128 1    
   122   61  129 1    
   123   62   63 2    
   124   62   64 am   BACKBONE|DICT|INTERRES
   125   64   65 1    
   126   64  130 1    
   127   65   66 1    
   128   65   69 1    
   129   65  131 1    
   130   66   67 am   BACKBONE|DICT|INTERRES
   131   66   68 2    
   132   67  132 1    
   133   67  133 1    
   134   69   70 1    
   135   69  134 1    
   136   69  135 1    
   137   70   71 1    
   138   71  136 1    
   139   71  137 1    
@<TRIPOS>SUBSTRUCTURE
     1 UNK         1 GROUP             0       ****    0 ROOT    
