@<TRIPOS>MOLECULE
3R137
137   139    1
SMALL
USER_CHARGES


@<TRIPOS>ATOM
      1 CA         28.5610   -3.6100    1.7110 C.3       0 UNK        -0.2020 
      2 C          28.3875   -3.0143    0.3223 C.2       0 UNK         0.4855 
      3 O          28.6155   -1.8190    0.1349 O.2       0 UNK        -0.5197 
      4 N          27.9707   -3.8325   -0.6519 N.am      1 UNK        -0.4892 
      5 CA         27.7732   -3.4718   -2.0630 C.3       1 UNK         0.0835 
      6 C6         27.8614   -4.7265   -2.9746 C.3       12 UNK        -0.0855 
      7 S7         29.4628   -5.5996   -2.8779 S.3       12 UNK        -0.2931 
      8 C8         30.2937   -5.0655   -4.4112 C.3       12 UNK         0.0378 
      9 C9         31.0870   -3.7856   -4.1963 C.ar      12 UNK        -0.0802 
     10 C10        32.4384   -3.8497   -3.8497 C.ar      12 UNK        -0.0944 
     11 C11        33.1809   -2.6816   -3.6509 C.ar      12 UNK        -0.0787 
     12 C12        32.5502   -1.4375   -3.7600 C.ar      12 UNK        -0.0862 
     13 C13        31.1955   -1.3616   -4.1031 C.ar      12 UNK        -0.0733 
     14 C14        30.4796   -2.5381   -4.3475 C.ar      12 UNK        -0.0832 
     15 C15        30.5095   -0.0138   -4.2662 C.3       12 UNK         0.0240 
     16 S16        29.0405    0.1432   -3.2035 S.3       12 UNK        -0.2522 
     17 C17        28.2194    1.6007   -3.9356 C.3       12 UNK        -0.0967 
     18 CA         27.6835    1.3617   -5.3718 C.3       5 UNK         0.0660 
     19 N          26.9259    0.1165   -5.5100 N.am      5 UNK        -0.4015 
     20 C          26.6676   -0.4854   -6.6788 C.2       4 UNK         0.4946 
     21 O          27.0520   -0.0566   -7.7641 O.2       4 UNK        -0.5353 
     22 CA         25.8059   -1.7565   -6.6388 C.3       4 UNK         0.0277 
     23 CB         26.6920   -2.9814   -6.3824 C.3       4 UNK        -0.1981 
     24 N          24.7491   -1.6787   -5.6269 N.am      4 UNK        -0.4209 
     25 C          23.7149   -0.8268   -5.7054 C.2       3 UNK         0.4942 
     26 O          23.5133   -0.0912   -6.6710 O.2       3 UNK        -0.5208 
     27 CA         22.7781   -0.7289   -4.4890 C.3       3 UNK         0.0250 
     28 CB         21.5919   -1.6927   -4.6457 C.3       3 UNK        -0.1990 
     29 N          23.4412   -0.9767   -3.2061 N.am      3 UNK        -0.4232 
     30 C          24.4901   -0.2955   -2.7227 C.2       2 UNK         0.4993 
     31 O          25.0199    0.6489   -3.3107 O.2       2 UNK        -0.5286 
     32 CA         25.0680   -0.7668   -1.3757 C.3       2 UNK         0.0209 
     33 CB         24.0360   -1.4945   -0.4856 C.3       2 UNK        -0.1931 
     34 N          26.2712   -1.5977   -1.5172 N.am      2 UNK        -0.4546 
     35 C          26.4506   -2.6911   -2.2742 C.2       1 UNK         0.5154 
     36 O          25.6174   -3.1012   -3.0864 O.2       1 UNK        -0.5181 
     37 C          26.8650    2.5614   -5.8771 C.2       5 UNK         0.5014 
     38 O          27.4253    3.4283   -6.5479 O.2       5 UNK        -0.5248 
     39 N          25.5487    2.5587   -5.6145 N.am      6 UNK        -0.4434 
     40 CA         24.5906    3.5174   -6.1774 C.3       6 UNK         0.0363 
     41 CB         23.2128    3.3164   -5.5276 C.3       6 UNK        -0.1936 
     42 C          24.4910    3.4326   -7.7140 C.2       6 UNK         0.5081 
     43 O          24.3642    4.4657   -8.3710 O.2       6 UNK        -0.5248 
     44 N          24.5949    2.2129   -8.2600 N.am      7 UNK        -0.4718 
     45 CA         24.6659    1.9297   -9.6977 C.3       7 UNK         0.0273 
     46 CB         24.2164    0.4779   -9.9360 C.3       7 UNK        -0.1935 
     47 C          26.0593    2.1726  -10.3172 C.2       7 UNK         0.5018 
     48 O          26.1965    2.0323  -11.5332 O.2       7 UNK        -0.5186 
     49 N          27.0591    2.5150   -9.4897 N.am      8 UNK        -0.4240 
     50 CA         28.4695    2.7510   -9.8243 C.3       8 UNK         0.0235 
     51 CB         28.6248    3.9547  -10.7785 C.3       8 UNK        -0.2000 
     52 C          29.2240    1.4965  -10.3132 C.2       8 UNK         0.4941 
     53 O          30.2344    1.6255  -11.0072 O.2       8 UNK        -0.5273 
     54 N          28.7701    0.3054   -9.9036 N.am      9 UNK        -0.4262 
     55 CA         29.4318   -0.9808  -10.1237 C.3       9 UNK         0.0264 
     56 CB         28.3566   -2.0578  -10.3622 C.3       9 UNK        -0.1955 
     57 C          30.3266   -1.2885   -8.9104 C.2       9 UNK         0.5031 
     58 O          30.0742   -2.2449   -8.1749 O.2       9 UNK        -0.5390 
     59 N          31.3236   -0.4234   -8.6964 N.am      10 UNK        -0.4204 
     60 CA         32.2114   -0.4250   -7.5361 C.3       10 UNK         0.0237 
     61 CB         32.3675    1.0318   -7.0580 C.3       10 UNK        -0.1985 
     62 C          33.5830   -1.0308   -7.8617 C.2       10 UNK         0.4970 
     63 O          33.9039   -1.2568   -9.0310 O.2       10 UNK        -0.4914 
     64 N          34.3825   -1.2319   -6.8060 N.am      11 UNK        -0.4285 
     65 CA         35.7976   -1.6333   -6.8670 C.3       11 UNK         0.1007 
     66 C          36.7348   -0.6203   -7.5918 C.2       11 UNK         0.5703 
     67 N          36.3705    0.6504   -7.7232 N.am      11 UNK        -0.7361 
     68 O          37.8132   -0.9990   -8.0428 O.2       11 UNK        -0.4986 
     69 C69        36.3551   -1.9467   -5.4523 C.3       12 UNK        -0.0947 
     70 S70        35.6312   -3.4414   -4.6988 S.3       12 UNK        -0.2240 
     71 C71        34.6581   -2.7854   -3.3020 C.3       12 UNK         0.0194 
     72 H72        27.9061   -3.1048    2.4203 H         1 UNK         0.0906 
     73 H73        28.3270   -4.6742    1.7312 H         1 UNK         0.0906 
     74 H74        29.5898   -3.4830    2.0467 H         1 UNK         0.0906 
     75 H75        27.7900   -4.8020   -0.4324 H         1 UNK         0.3140 
     76 H76        28.5778   -2.7925   -2.3483 H         1 UNK         0.1085 
     77 H77        27.6683   -4.4732   -4.0149 H         1 UNK         0.0836 
     78 H78        27.0796   -5.4390   -2.7040 H         1 UNK         0.0836 
     79 H79        29.5727   -4.9393   -5.2203 H         1 UNK         0.0731 
     80 H80        30.9651   -5.8623   -4.7351 H         1 UNK         0.0731 
     81 H81        32.9199   -4.8125   -3.7434 H         1 UNK         0.1312 
     82 H82        33.1136   -0.5311   -3.5841 H         1 UNK         0.1406 
     83 H83        29.4417   -2.4785   -4.6408 H         1 UNK         0.1631 
     84 H84        30.2145    0.0761   -5.3092 H         1 UNK         0.0717 
     85 H85        31.1934    0.8097   -4.0558 H         1 UNK         0.0717 
     86 H86        27.4063    1.8838   -3.2643 H         1 UNK         0.0934 
     87 H87        28.9206    2.4375   -3.9264 H         1 UNK         0.0934 
     88 H88        28.5418    1.2912   -6.0417 H         1 UNK         0.0739 
     89 H89        26.5094   -0.2414   -4.6609 H         1 UNK         0.3093 
     90 H90        25.3321   -1.8749   -7.6155 H         1 UNK         0.0818 
     91 H91        27.2503   -2.8675   -5.4560 H         1 UNK         0.0819 
     92 H92        26.1061   -3.8985   -6.3196 H         1 UNK         0.0819 
     93 H93        27.4210   -3.1107   -7.1838 H         1 UNK         0.0819 
     94 H94        24.8630   -2.2408   -4.7880 H         1 UNK         0.3041 
     95 H95        22.3887    0.2904   -4.4597 H         1 UNK         0.0784 
     96 H96        21.0657   -1.5138   -5.5847 H         1 UNK         0.0793 
     97 H97        21.9152   -2.7345   -4.6463 H         1 UNK         0.0793 
     98 H98        20.8669   -1.5652   -3.8415 H         1 UNK         0.0793 
     99 H99        23.1056   -1.7633   -2.6692 H         1 UNK         0.3024 
    100 H100       25.3754    0.1395   -0.8510 H         1 UNK         0.1171 
    101 H101       24.4363   -1.6599    0.5148 H         1 UNK         0.0786 
    102 H102       23.1259   -0.9039   -0.3696 H         1 UNK         0.0786 
    103 H103       23.7542   -2.4687   -0.8870 H         1 UNK         0.0786 
    104 H104       27.0480   -1.3533   -0.9073 H         1 UNK         0.2977 
    105 H105       25.1807    1.8319   -5.0083 H         1 UNK         0.3127 
    106 H106       24.9424    4.5199   -5.9245 H         1 UNK         0.0770 
    107 H107       22.7866    2.3444   -5.7748 H         1 UNK         0.0814 
    108 H108       22.5084    4.0749   -5.8716 H         1 UNK         0.0814 
    109 H109       23.2684    3.3936   -4.4416 H         1 UNK         0.0814 
    110 H110       24.6146    1.4078   -7.6426 H         1 UNK         0.2983 
    111 H111       23.9671    2.5906  -10.2150 H         1 UNK         0.0947 
    112 H112       24.1826    0.2463  -11.0014 H         1 UNK         0.0806 
    113 H113       23.2186    0.2996   -9.5346 H         1 UNK         0.0806 
    114 H114       24.8968   -0.2350   -9.4698 H         1 UNK         0.0806 
    115 H115       26.8373    2.5931   -8.5047 H         1 UNK         0.3000 
    116 H116       28.9475    3.0246   -8.8826 H         1 UNK         0.0850 
    117 H117       29.6733    4.2338  -10.8893 H         1 UNK         0.0810 
    118 H118       28.0969    4.8304  -10.4010 H         1 UNK         0.0810 
    119 H119       28.2423    3.7345  -11.7754 H         1 UNK         0.0810 
    120 H120       27.9966    0.2844   -9.2375 H         1 UNK         0.3040 
    121 H121       30.0680   -0.9363  -11.0102 H         1 UNK         0.0766 
    122 H122       28.8120   -3.0351  -10.5260 H         1 UNK         0.0812 
    123 H123       27.7554   -1.8267  -11.2415 H         1 UNK         0.0812 
    124 H124       27.6803   -2.1495   -9.5117 H         1 UNK         0.0812 
    125 H125       31.4871    0.2951   -9.3896 H         1 UNK         0.3205 
    126 H126       31.7690   -1.0229   -6.7400 H         1 UNK         0.0754 
    127 H127       32.8890    1.6440   -7.7952 H         1 UNK         0.0769 
    128 H128       32.9322    1.0894   -6.1268 H         1 UNK         0.0769 
    129 H129       31.3988    1.4969   -6.8740 H         1 UNK         0.0769 
    130 H130       34.0232   -1.0523   -5.8813 H         1 UNK         0.2981 
    131 H131       35.8398   -2.5511   -7.4565 H         1 UNK         0.0541 
    132 H132       35.4935    0.9754   -7.3518 H         1 UNK         0.3459 
    133 H133       36.9871    1.2917   -8.1967 H         1 UNK         0.3459 
    134 H134       36.2270   -1.0875   -4.7922 H         1 UNK         0.0612 
    135 H135       37.4312   -2.1265   -5.4972 H         1 UNK         0.0612 
    136 H136       35.0570   -1.8263   -2.9697 H         1 UNK         0.0624 
    137 H137       34.7697   -3.4655   -2.4564 H         1 UNK         0.0624 
@<TRIPOS>BOND
     1    1    2 1    
     2    1   72 1    
     3    1   73 1    
     4    1   74 1    
     5    2    3 2    
     6    2    4 am   BACKBONE|DICT|INTERRES
     7    4    5 1    
     8    4   75 1    
     9    5    6 1    
    10    5   35 1    
    11    5   76 1    
    12    6    7 1    
    13    6   77 1    
    14    6   78 1    
    15    7    8 1    
    16    8    9 1    
    17    8   79 1    
    18    8   80 1    
    19    9   10 ar   
    20    9   14 ar   
    21   10   11 ar   
    22   10   81 1    
    23   11   12 ar   
    24   11   71 1    
    25   12   13 ar   
    26   12   82 1    
    27   13   14 ar   
    28   13   15 1    
    29   14   83 1    
    30   15   16 1    
    31   15   84 1    
    32   15   85 1    
    33   16   17 1    
    34   17   18 1    
    35   17   86 1    
    36   17   87 1    
    37   18   19 1    
    38   18   37 1    
    39   18   88 1    
    40   19   20 am   BACKBONE|DICT|INTERRES
    41   19   89 1    
    42   20   21 2    
    43   20   22 1    
    44   22   23 1    
    45   22   24 1    
    46   22   90 1    
    47   23   91 1    
    48   23   92 1    
    49   23   93 1    
    50   24   25 am   BACKBONE|DICT|INTERRES
    51   24   94 1    
    52   25   26 2    
    53   25   27 1    
    54   27   28 1    
    55   27   29 1    
    56   27   95 1    
    57   28   96 1    
    58   28   97 1    
    59   28   98 1    
    60   29   30 am   BACKBONE|DICT|INTERRES
    61   29   99 1    
    62   30   31 2    
    63   30   32 1    
    64   32   33 1    
    65   32   34 1    
    66   32  100 1    
    67   33  101 1    
    68   33  102 1    
    69   33  103 1    
    70   34   35 am   BACKBONE|DICT|INTERRES
    71   34  104 1    
    72   35   36 2    
    73   37   38 2    
    74   37   39 am   BACKBONE|DICT|INTERRES
    75   39   40 1    
    76   39  105 1    
    77   40   41 1    
    78   40   42 1    
    79   40  106 1    
    80   41  107 1    
    81   41  108 1    
    82   41  109 1    
    83   42   43 2    
    84   42   44 am   BACKBONE|DICT|INTERRES
    85   44   45 1    
    86   44  110 1    
    87   45   46 1    
    88   45   47 1    
    89   45  111 1    
    90   46  112 1    
    91   46  113 1    
    92   46  114 1    
    93   47   48 2    
    94   47   49 am   BACKBONE|DICT|INTERRES
    95   49   50 1    
    96   49  115 1    
    97   50   51 1    
    98   50   52 1    
    99   50  116 1    
   100   51  117 1    
   101   51  118 1    
   102   51  119 1    
   103   52   53 2    
   104   52   54 am   BACKBONE|DICT|INTERRES
   105   54   55 1    
   106   54  120 1    
   107   55   56 1    
   108   55   57 1    
   109   55  121 1    
   110   56  122 1    
   111   56  123 1    
   112   56  124 1    
   113   57   58 2    
   114   57   59 am   BACKBONE|DICT|INTERRES
   115   59   60 1    
   116   59  125 1    
   117   60   61 1    
   118   60   62 1    
   119   60  126 1    
   120   61  127 1    
   121   61  128 1    
   122   61  129 1    
   123   62   63 2    
   124   62   64 am   BACKBONE|DICT|INTERRES
   125   64   65 1    
   126   64  130 1    
   127   65   66 1    
   128   65   69 1    
   129   65  131 1    
   130   66   67 am   BACKBONE|DICT|INTERRES
   131   66   68 2    
   132   67  132 1    
   133   67  133 1    
   134   69   70 1    
   135   69  134 1    
   136   69  135 1    
   137   70   71 1    
   138   71  136 1    
   139   71  137 1    
@<TRIPOS>SUBSTRUCTURE
     1 UNK         1 GROUP             0       ****    0 ROOT    
