@<TRIPOS>MOLECULE
3R137
137   139    1
SMALL
USER_CHARGES


@<TRIPOS>ATOM
      1 CA         26.7451   -6.3495   -4.6125 C.3       0 UNK        -0.2020 
      2 C          26.1203   -5.4356   -3.5700 C.2       0 UNK         0.4855 
      3 O          24.9013   -5.2648   -3.5662 O.2       0 UNK        -0.5197 
      4 N          26.9519   -4.8467   -2.6984 N.am      1 UNK        -0.4892 
      5 CA         26.6122   -3.9161   -1.6121 C.3       1 UNK         0.0835 
      6 C6         27.8879   -3.3255   -0.9633 C.3       12 UNK        -0.0855 
      7 S7         29.0881   -4.5527   -0.3403 S.3       12 UNK        -0.2931 
      8 C8         30.4463   -4.4601   -1.5712 C.3       12 UNK         0.0378 
      9 C9         31.0304   -3.0704   -1.8544 C.ar      12 UNK        -0.0802 
     10 C10        31.7807   -2.8902   -3.0214 C.ar      12 UNK        -0.0944 
     11 C11        32.3147   -1.6394   -3.3452 C.ar      12 UNK        -0.0787 
     12 C12        32.0741   -0.5491   -2.5054 C.ar      12 UNK        -0.0862 
     13 C13        31.3179   -0.7068   -1.3416 C.ar      12 UNK        -0.0733 
     14 C14        30.8359   -1.9743   -1.0023 C.ar      12 UNK        -0.0832 
     15 C15        31.0019    0.4903   -0.4533 C.3       12 UNK         0.0240 
     16 S16        30.0240    1.7781   -1.3052 S.3       12 UNK        -0.2522 
     17 C17        28.6011    0.8588   -1.9949 C.3       12 UNK        -0.0967 
     18 CA         28.5446    0.9735   -3.5439 C.3       5 UNK         0.0660 
     19 N          28.0468   -0.2539   -4.1734 N.am      5 UNK        -0.4015 
     20 C          28.1436   -0.5335   -5.4806 C.2       4 UNK         0.4946 
     21 O          28.5198    0.2755   -6.3285 O.2       4 UNK        -0.5353 
     22 CA         27.7509   -1.9483   -5.9174 C.3       4 UNK         0.0277 
     23 CB         28.6511   -3.0004   -5.2446 C.3       4 UNK        -0.1981 
     24 N          26.3429   -2.2262   -5.6265 N.am      4 UNK        -0.4209 
     25 C          25.3834   -2.3459   -6.5573 C.2       3 UNK         0.4942 
     26 O          25.5822   -2.1793   -7.7607 O.2       3 UNK        -0.5208 
     27 CA         23.9654   -2.7459   -6.1024 C.3       3 UNK         0.0250 
     28 CB         23.5993   -4.1375   -6.6469 C.3       3 UNK        -0.1990 
     29 N          23.8045   -2.7555   -4.6472 N.am      3 UNK        -0.4232 
     30 C          23.4171   -1.6988   -3.9193 C.2       2 UNK         0.4993 
     31 O          23.0864   -0.6190   -4.4069 O.2       2 UNK        -0.5286 
     32 CA         23.4324   -1.8526   -2.3850 C.3       2 UNK         0.0209 
     33 CB         22.0350   -2.2320   -1.8694 C.3       2 UNK        -0.1931 
     34 N          24.4139   -2.8254   -1.8875 N.am      2 UNK        -0.4546 
     35 C          25.7324   -2.7518   -2.1110 C.2       1 UNK         0.5154 
     36 O          26.2606   -1.8349   -2.7453 O.2       1 UNK        -0.5181 
     37 C          27.7643    2.2241   -3.9964 C.2       5 UNK         0.5014 
     38 O          28.3694    3.2744   -4.2149 O.2       5 UNK        -0.5248 
     39 N          26.4393    2.0820   -4.1535 N.am      6 UNK        -0.4434 
     40 CA         25.5532    3.1405   -4.6450 C.3       6 UNK         0.0363 
     41 CB         24.0972    2.7907   -4.3023 C.3       6 UNK        -0.1936 
     42 C          25.7029    3.3926   -6.1556 C.2       6 UNK         0.5081 
     43 O          25.4841    4.5197   -6.6004 O.2       6 UNK        -0.5248 
     44 N          26.0657    2.3496   -6.9160 N.am      7 UNK        -0.4718 
     45 CA         26.3329    2.4322   -8.3532 C.3       7 UNK         0.0273 
     46 CB         26.2043    1.0360   -8.9825 C.3       7 UNK        -0.1935 
     47 C          27.7141    3.0376   -8.6462 C.2       7 UNK         0.5018 
     48 O          27.8499    3.7848   -9.6159 O.2       7 UNK        -0.5186 
     49 N          28.7084    2.6960   -7.8124 N.am      8 UNK        -0.4240 
     50 CA         30.1125    3.1276   -7.8103 C.3       8 UNK         0.0235 
     51 CB         30.2434    4.6536   -7.6439 C.3       8 UNK        -0.2000 
     52 C          30.9255    2.6163   -9.0103 C.2       8 UNK         0.4941 
     53 O          31.9831    2.0219   -8.8091 O.2       8 UNK        -0.5273 
     54 N          30.4096    2.8032  -10.2325 N.am      9 UNK        -0.4262 
     55 CA         30.9885    2.3004  -11.4843 C.3       9 UNK         0.0264 
     56 CB         30.1823    2.8464  -12.6731 C.3       9 UNK        -0.1955 
     57 C          31.0637    0.7637  -11.5415 C.2       9 UNK         0.5031 
     58 O          31.9772    0.2205  -12.1642 O.2       9 UNK        -0.5390 
     59 N          30.1329    0.0955  -10.8455 N.am      10 UNK        -0.4204 
     60 CA         30.0804   -1.3548  -10.6488 C.3       10 UNK         0.0237 
     61 CB         28.7864   -1.7013   -9.8976 C.3       10 UNK        -0.1985 
     62 C          31.3005   -1.9352   -9.9072 C.2       10 UNK         0.4970 
     63 O          31.5910   -3.1192  -10.0816 O.2       10 UNK        -0.4914 
     64 N          31.9970   -1.1071   -9.1164 N.am      11 UNK        -0.4285 
     65 CA         33.2657   -1.4558   -8.4612 C.3       11 UNK         0.1007 
     66 C          34.4924   -1.4512   -9.4225 C.2       11 UNK         0.5703 
     67 N          34.3780   -0.9972  -10.6668 N.am      11 UNK        -0.7361 
     68 O          35.5742   -1.8841   -9.0325 O.2       11 UNK        -0.4986 
     69 C69        33.5291   -0.5701   -7.2154 C.3       12 UNK        -0.0947 
     70 S70        32.2197   -0.7115   -5.9506 S.3       12 UNK        -0.2240 
     71 C71        33.1641   -1.4647   -4.5931 C.3       12 UNK         0.0194 
     72 H72        26.5718   -5.9505   -5.6116 H         1 UNK         0.0906 
     73 H73        27.8204   -6.4571   -4.4717 H         1 UNK         0.0906 
     74 H74        26.2957   -7.3406   -4.5588 H         1 UNK         0.0906 
     75 H75        27.9349   -5.0671   -2.7525 H         1 UNK         0.3140 
     76 H76        26.0611   -4.4751   -0.8534 H         1 UNK         0.1085 
     77 H77        28.3913   -2.6764   -1.6785 H         1 UNK         0.0836 
     78 H78        27.6171   -2.6841   -0.1220 H         1 UNK         0.0836 
     79 H79        30.0836   -4.8906   -2.5055 H         1 UNK         0.0731 
     80 H80        31.2557   -5.1081   -1.2324 H         1 UNK         0.0731 
     81 H81        31.9524   -3.7290   -3.6824 H         1 UNK         0.1312 
     82 H82        32.4627    0.4263   -2.7653 H         1 UNK         0.1406 
     83 H83        30.2738   -2.0923   -0.0870 H         1 UNK         0.1631 
     84 H84        31.9366    0.9311   -0.1043 H         1 UNK         0.0717 
     85 H85        30.4590    0.1786    0.4404 H         1 UNK         0.0717 
     86 H86        28.6807   -0.1851   -1.6928 H         1 UNK         0.0934 
     87 H87        27.6819    1.2161   -1.5259 H         1 UNK         0.0934 
     88 H88        29.5660    1.0898   -3.9153 H         1 UNK         0.0739 
     89 H89        27.6060   -0.9338   -3.5582 H         1 UNK         0.3093 
     90 H90        27.9323   -2.0178   -6.9899 H         1 UNK         0.0818 
     91 H91        28.5325   -3.0149   -4.1619 H         1 UNK         0.0819 
     92 H92        28.4366   -4.0001   -5.6209 H         1 UNK         0.0819 
     93 H93        29.7035   -2.7980   -5.4507 H         1 UNK         0.0819 
     94 H94        26.0878   -2.2940   -4.6472 H         1 UNK         0.3041 
     95 H95        23.2728   -2.0234   -6.5397 H         1 UNK         0.0784 
     96 H96        23.6573   -4.1606   -7.7360 H         1 UNK         0.0793 
     97 H97        24.2699   -4.9096   -6.2687 H         1 UNK         0.0793 
     98 H98        22.5814   -4.4148   -6.3726 H         1 UNK         0.0793 
     99 H99        24.0668   -3.6138   -4.1669 H         1 UNK         0.3024 
    100 H100       23.6988   -0.8771   -1.9716 H         1 UNK         0.1171 
    101 H101       22.0032   -2.2457   -0.7798 H         1 UNK         0.0786 
    102 H102       21.2865   -1.5122   -2.2042 H         1 UNK         0.0786 
    103 H103       21.7258   -3.2146   -2.2284 H         1 UNK         0.0786 
    104 H104       24.0458   -3.6374   -1.4121 H         1 UNK         0.2977 
    105 H105       26.0182    1.1872   -3.9479 H         1 UNK         0.3127 
    106 H106       25.8093    4.0680   -4.1279 H         1 UNK         0.0770 
    107 H107       23.7641    1.8954   -4.8274 H         1 UNK         0.0814 
    108 H108       23.4259    3.6014   -4.5889 H         1 UNK         0.0814 
    109 H109       23.9654    2.6243   -3.2331 H         1 UNK         0.0814 
    110 H110       26.2532    1.4655   -6.4665 H         1 UNK         0.2983 
    111 H111       25.5839    3.0811   -8.8133 H         1 UNK         0.0947 
    112 H112       26.4089    1.0672  -10.0535 H         1 UNK         0.0806 
    113 H113       25.1975    0.6370   -8.8578 H         1 UNK         0.0806 
    114 H114       26.8979    0.3235   -8.5364 H         1 UNK         0.0806 
    115 H115       28.4988    1.9790   -7.1198 H         1 UNK         0.3000 
    116 H116       30.5492    2.6663   -6.9224 H         1 UNK         0.0850 
    117 H117       31.2901    4.9445   -7.5471 H         1 UNK         0.0810 
    118 H118       29.7273    4.9958   -6.7465 H         1 UNK         0.0810 
    119 H119       29.8334    5.1983   -8.4947 H         1 UNK         0.0810 
    120 H120       29.5173    3.2907  -10.2871 H         1 UNK         0.3040 
    121 H121       32.0095    2.6812  -11.5545 H         1 UNK         0.0766 
    122 H122       30.1938    3.9363  -12.6925 H         1 UNK         0.0812 
    123 H123       29.1412    2.5226  -12.6387 H         1 UNK         0.0812 
    124 H124       30.6010    2.5021  -13.6199 H         1 UNK         0.0812 
    125 H125       29.4315    0.6403  -10.3672 H         1 UNK         0.3205 
    126 H126       30.0463   -1.8229  -11.6346 H         1 UNK         0.0754 
    127 H127       28.7104   -2.7735   -9.7108 H         1 UNK         0.0769 
    128 H128       27.9027   -1.4097  -10.4656 H         1 UNK         0.0769 
    129 H129       28.7476   -1.1965   -8.9328 H         1 UNK         0.0769 
    130 H130       31.7193   -0.1372   -9.0333 H         1 UNK         0.2981 
    131 H131       33.1798   -2.4845   -8.1062 H         1 UNK         0.0541 
    132 H132       33.4983   -0.6395  -11.0196 H         1 UNK         0.3459 
    133 H133       35.1864   -1.0117  -11.2677 H         1 UNK         0.3459 
    134 H134       33.6164    0.4783   -7.5018 H         1 UNK         0.0612 
    135 H135       34.4871   -0.8303   -6.7616 H         1 UNK         0.0612 
    136 H136       33.5620   -2.4256   -4.9233 H         1 UNK         0.0624 
    137 H137       34.0245   -0.8359   -4.3590 H         1 UNK         0.0624 
@<TRIPOS>BOND
     1    1    2 1    
     2    1   72 1    
     3    1   73 1    
     4    1   74 1    
     5    2    3 2    
     6    2    4 am   BACKBONE|DICT|INTERRES
     7    4    5 1    
     8    4   75 1    
     9    5    6 1    
    10    5   35 1    
    11    5   76 1    
    12    6    7 1    
    13    6   77 1    
    14    6   78 1    
    15    7    8 1    
    16    8    9 1    
    17    8   79 1    
    18    8   80 1    
    19    9   10 ar   
    20    9   14 ar   
    21   10   11 ar   
    22   10   81 1    
    23   11   12 ar   
    24   11   71 1    
    25   12   13 ar   
    26   12   82 1    
    27   13   14 ar   
    28   13   15 1    
    29   14   83 1    
    30   15   16 1    
    31   15   84 1    
    32   15   85 1    
    33   16   17 1    
    34   17   18 1    
    35   17   86 1    
    36   17   87 1    
    37   18   19 1    
    38   18   37 1    
    39   18   88 1    
    40   19   20 am   BACKBONE|DICT|INTERRES
    41   19   89 1    
    42   20   21 2    
    43   20   22 1    
    44   22   23 1    
    45   22   24 1    
    46   22   90 1    
    47   23   91 1    
    48   23   92 1    
    49   23   93 1    
    50   24   25 am   BACKBONE|DICT|INTERRES
    51   24   94 1    
    52   25   26 2    
    53   25   27 1    
    54   27   28 1    
    55   27   29 1    
    56   27   95 1    
    57   28   96 1    
    58   28   97 1    
    59   28   98 1    
    60   29   30 am   BACKBONE|DICT|INTERRES
    61   29   99 1    
    62   30   31 2    
    63   30   32 1    
    64   32   33 1    
    65   32   34 1    
    66   32  100 1    
    67   33  101 1    
    68   33  102 1    
    69   33  103 1    
    70   34   35 am   BACKBONE|DICT|INTERRES
    71   34  104 1    
    72   35   36 2    
    73   37   38 2    
    74   37   39 am   BACKBONE|DICT|INTERRES
    75   39   40 1    
    76   39  105 1    
    77   40   41 1    
    78   40   42 1    
    79   40  106 1    
    80   41  107 1    
    81   41  108 1    
    82   41  109 1    
    83   42   43 2    
    84   42   44 am   BACKBONE|DICT|INTERRES
    85   44   45 1    
    86   44  110 1    
    87   45   46 1    
    88   45   47 1    
    89   45  111 1    
    90   46  112 1    
    91   46  113 1    
    92   46  114 1    
    93   47   48 2    
    94   47   49 am   BACKBONE|DICT|INTERRES
    95   49   50 1    
    96   49  115 1    
    97   50   51 1    
    98   50   52 1    
    99   50  116 1    
   100   51  117 1    
   101   51  118 1    
   102   51  119 1    
   103   52   53 2    
   104   52   54 am   BACKBONE|DICT|INTERRES
   105   54   55 1    
   106   54  120 1    
   107   55   56 1    
   108   55   57 1    
   109   55  121 1    
   110   56  122 1    
   111   56  123 1    
   112   56  124 1    
   113   57   58 2    
   114   57   59 am   BACKBONE|DICT|INTERRES
   115   59   60 1    
   116   59  125 1    
   117   60   61 1    
   118   60   62 1    
   119   60  126 1    
   120   61  127 1    
   121   61  128 1    
   122   61  129 1    
   123   62   63 2    
   124   62   64 am   BACKBONE|DICT|INTERRES
   125   64   65 1    
   126   64  130 1    
   127   65   66 1    
   128   65   69 1    
   129   65  131 1    
   130   66   67 am   BACKBONE|DICT|INTERRES
   131   66   68 2    
   132   67  132 1    
   133   67  133 1    
   134   69   70 1    
   135   69  134 1    
   136   69  135 1    
   137   70   71 1    
   138   71  136 1    
   139   71  137 1    
@<TRIPOS>SUBSTRUCTURE
     1 UNK         1 GROUP             0       ****    0 ROOT    
