@<TRIPOS>MOLECULE
3R137
137   139    1
SMALL
USER_CHARGES


@<TRIPOS>ATOM
      1 CA         24.0204   -5.5140   -5.5385 C.3       0 UNK        -0.2020 
      2 C          24.5962   -5.2761   -4.1511 C.2       0 UNK         0.4855 
      3 O          23.8578   -4.9079   -3.2369 O.2       0 UNK        -0.5197 
      4 N          25.9122   -5.4740   -3.9942 N.am      1 UNK        -0.4892 
      5 CA         26.6885   -5.2611   -2.7657 C.3       1 UNK         0.0835 
      6 C6         28.1692   -5.6498   -3.0029 C.3       12 UNK        -0.0855 
      7 S7         29.2153   -5.5382   -1.5096 S.3       12 UNK        -0.2931 
      8 C8         30.8006   -4.9663   -2.2092 C.3       12 UNK         0.0378 
      9 C9         30.7047   -3.5853   -2.8475 C.ar      12 UNK        -0.0802 
     10 C10        30.8530   -3.4336   -4.2301 C.ar      12 UNK        -0.0944 
     11 C11        30.7859   -2.1670   -4.8186 C.ar      12 UNK        -0.0787 
     12 C12        30.5616   -1.0458   -4.0148 C.ar      12 UNK        -0.0862 
     13 C13        30.4009   -1.1846   -2.6326 C.ar      12 UNK        -0.0733 
     14 C14        30.4823   -2.4558   -2.0549 C.ar      12 UNK        -0.0832 
     15 C15        30.1334    0.0281   -1.7541 C.3       12 UNK         0.0240 
     16 S16        28.3696    0.1278   -1.3174 S.3       12 UNK        -0.2522 
     17 C17        27.8104    1.6307   -2.1876 C.3       12 UNK        -0.0967 
     18 CA         27.8680    1.5522   -3.7344 C.3       5 UNK         0.0660 
     19 N          27.2189    0.3465   -4.2682 N.am      5 UNK        -0.4015 
     20 C          27.2327   -0.0689   -5.5457 C.2       4 UNK         0.4946 
     21 O          27.8469    0.5038   -6.4489 O.2       4 UNK        -0.5353 
     22 CA         26.3558   -1.2795   -5.9029 C.3       4 UNK         0.0277 
     23 CB         27.2150   -2.5257   -6.1704 C.3       4 UNK        -0.1981 
     24 N          25.3368   -1.5676   -4.8892 N.am      4 UNK        -0.4209 
     25 C          24.2018   -0.8634   -4.7459 C.2       3 UNK         0.4942 
     26 O          23.9096    0.0942   -5.4625 O.2       3 UNK        -0.5208 
     27 CA         23.2362   -1.2659   -3.6161 C.3       3 UNK         0.0250 
     28 CB         22.0747   -2.1066   -4.1693 C.3       3 UNK        -0.1990 
     29 N          23.8999   -1.9948   -2.5327 N.am      3 UNK        -0.4232 
     30 C          24.6466   -1.4034   -1.5875 C.2       2 UNK         0.4993 
     31 O          24.7677   -0.1827   -1.4864 O.2       2 UNK        -0.5286 
     32 CA         25.4154   -2.3161   -0.6112 C.3       2 UNK         0.0209 
     33 CB         24.6100   -2.5187    0.6822 C.3       2 UNK        -0.1931 
     34 N          25.7777   -3.6253   -1.1671 N.am      2 UNK        -0.4546 
     35 C          26.5246   -3.8094   -2.2653 C.2       1 UNK         0.5154 
     36 O          27.0003   -2.8850   -2.9232 O.2       1 UNK        -0.5181 
     37 C          27.3464    2.8698   -4.3541 C.2       5 UNK         0.5014 
     38 O          28.0047    3.8999   -4.2086 O.2       5 UNK        -0.5248 
     39 N          26.2174    2.8172   -5.0779 N.am      6 UNK        -0.4434 
     40 CA         25.7049    3.8778   -5.9515 C.3       6 UNK         0.0363 
     41 CB         24.2202    3.5933   -6.2399 C.3       6 UNK        -0.1936 
     42 C          26.5045    4.0446   -7.2669 C.2       6 UNK         0.5081 
     43 O          26.0695    4.8030   -8.1338 O.2       6 UNK        -0.5248 
     44 N          27.6385    3.3385   -7.3962 N.am      7 UNK        -0.4718 
     45 CA         28.5542    3.2670   -8.5375 C.3       7 UNK         0.0273 
     46 CB         29.0827    4.6570   -8.9541 C.3       7 UNK        -0.1935 
     47 C          27.9542    2.4559   -9.6954 C.2       7 UNK         0.5018 
     48 O          28.0076    2.8859  -10.8493 O.2       7 UNK        -0.5186 
     49 N          27.4136    1.2731   -9.3638 N.am      8 UNK        -0.4240 
     50 CA         26.9621    0.2785  -10.3462 C.3       8 UNK         0.0235 
     51 CB         26.0519   -0.7513   -9.6614 C.3       8 UNK        -0.2000 
     52 C          28.1398   -0.4294  -11.0434 C.2       8 UNK         0.4941 
     53 O          27.9791   -0.9202  -12.1614 O.2       8 UNK        -0.5273 
     54 N          29.2977   -0.4512  -10.3760 N.am      9 UNK        -0.4262 
     55 CA         30.5920   -0.8796  -10.8852 C.3       9 UNK         0.0264 
     56 CB         30.8617   -2.3306  -10.4531 C.3       9 UNK        -0.1955 
     57 C          31.6386    0.0794  -10.3064 C.2       9 UNK         0.5031 
     58 O          31.3841    0.7082   -9.2728 O.2       9 UNK        -0.5390 
     59 N          32.8023    0.1677  -10.9611 N.am      10 UNK        -0.4204 
     60 CA         33.9214    1.0420  -10.5891 C.3       10 UNK         0.0237 
     61 CB         34.7916    1.2938  -11.8357 C.3       10 UNK        -0.1985 
     62 C          34.7346    0.4962   -9.3958 C.2       10 UNK         0.4970 
     63 O          35.9514    0.3282   -9.5004 O.2       10 UNK        -0.4914 
     64 N          34.0416    0.2101   -8.2902 N.am      11 UNK        -0.4285 
     65 CA         34.6107   -0.2675   -7.0244 C.3       11 UNK         0.1007 
     66 C          35.4323    0.8285   -6.2928 C.2       11 UNK         0.5703 
     67 N          36.4531    0.4385   -5.5413 N.am      11 UNK        -0.7361 
     68 O          35.1333    2.0194   -6.3686 O.2       11 UNK        -0.4986 
     69 C69        33.5116   -0.8461   -6.0985 C.3       12 UNK        -0.0947 
     70 S70        32.6708   -2.2821   -6.8462 S.3       12 UNK        -0.2240 
     71 C71        30.9485   -2.0144   -6.3244 C.3       12 UNK         0.0194 
     72 H72        23.7934   -4.5631   -6.0194 H         1 UNK         0.0906 
     73 H73        24.7127   -6.0618   -6.1774 H         1 UNK         0.0906 
     74 H74        23.0985   -6.0909   -5.4693 H         1 UNK         0.0906 
     75 H75        26.4541   -5.7642   -4.7954 H         1 UNK         0.3140 
     76 H76        26.2833   -5.9346   -2.0075 H         1 UNK         0.1085 
     77 H77        28.5879   -5.0318   -3.7980 H         1 UNK         0.0836 
     78 H78        28.2280   -6.6778   -3.3641 H         1 UNK         0.0836 
     79 H79        31.1558   -5.7035   -2.9311 H         1 UNK         0.0731 
     80 H80        31.5458   -4.9379   -1.4130 H         1 UNK         0.0731 
     81 H81        31.0281   -4.3002   -4.8529 H         1 UNK         0.1312 
     82 H82        30.5088   -0.0677   -4.4701 H         1 UNK         0.1406 
     83 H83        30.3541   -2.5692   -0.9869 H         1 UNK         0.1631 
     84 H84        30.4634    0.9456   -2.2428 H         1 UNK         0.0717 
     85 H85        30.7179   -0.0517   -0.8364 H         1 UNK         0.0717 
     86 H86        26.7873    1.8276   -1.8602 H         1 UNK         0.0934 
     87 H87        28.4067    2.4706   -1.8248 H         1 UNK         0.0934 
     88 H88        28.9160    1.4931   -4.0272 H         1 UNK         0.0739 
     89 H89        26.7298   -0.2211   -3.5894 H         1 UNK         0.3093 
     90 H90        25.8325   -1.0312   -6.8262 H         1 UNK         0.0818 
     91 H91        27.8473   -2.7779   -5.3193 H         1 UNK         0.0819 
     92 H92        26.5991   -3.3936   -6.4045 H         1 UNK         0.0819 
     93 H93        27.8771   -2.3599   -7.0207 H         1 UNK         0.0819 
     94 H94        25.5811   -2.2720   -4.2008 H         1 UNK         0.3041 
     95 H95        22.8136   -0.3454   -3.2072 H         1 UNK         0.0784 
     96 H96        22.4224   -3.0352   -4.6205 H         1 UNK         0.0793 
     97 H97        21.3613   -2.3618   -3.3855 H         1 UNK         0.0793 
     98 H98        21.5287   -1.5573   -4.9375 H         1 UNK         0.0793 
     99 H99        23.8547   -3.0099   -2.5656 H         1 UNK         0.3024 
    100 H100       26.3452   -1.8026   -0.3592 H         1 UNK         0.1171 
    101 H101       25.1822   -3.0767    1.4236 H         1 UNK         0.0786 
    102 H102       24.3486   -1.5600    1.1326 H         1 UNK         0.0786 
    103 H103       23.6795   -3.0572    0.4981 H         1 UNK         0.0786 
    104 H104       25.3802   -4.4337   -0.7104 H         1 UNK         0.2977 
    105 H105       25.7338    1.9310   -5.1353 H         1 UNK         0.3127 
    106 H106       25.7729    4.8264   -5.4150 H         1 UNK         0.0770 
    107 H107       24.0906    2.6679   -6.8031 H         1 UNK         0.0814 
    108 H108       23.7703    4.3969   -6.8245 H         1 UNK         0.0814 
    109 H109       23.6449    3.5069   -5.3180 H         1 UNK         0.0814 
    110 H110       27.8545    2.6886   -6.6505 H         1 UNK         0.2983 
    111 H111       29.4154    2.6917   -8.1917 H         1 UNK         0.0947 
    112 H112       29.8780    4.5607   -9.6942 H         1 UNK         0.0806 
    113 H113       29.4966    5.1963   -8.1023 H         1 UNK         0.0806 
    114 H114       28.3039    5.2762   -9.3997 H         1 UNK         0.0806 
    115 H115       27.4256    0.9947   -8.3868 H         1 UNK         0.3000 
    116 H116       26.3796    0.7933  -11.1136 H         1 UNK         0.0850 
    117 H117       25.6028   -1.4188  -10.3981 H         1 UNK         0.0810 
    118 H118       25.2365   -0.2703   -9.1207 H         1 UNK         0.0810 
    119 H119       26.6101   -1.3745   -8.9634 H         1 UNK         0.0810 
    120 H120       29.3577    0.0339   -9.4890 H         1 UNK         0.3040 
    121 H121       30.6099   -0.8034  -11.9746 H         1 UNK         0.0766 
    122 H122       30.1117   -3.0089  -10.8603 H         1 UNK         0.0812 
    123 H123       30.8511   -2.4356   -9.3681 H         1 UNK         0.0812 
    124 H124       31.8351   -2.6737  -10.8054 H         1 UNK         0.0812 
    125 H125       32.9440   -0.4149  -11.7743 H         1 UNK         0.3205 
    126 H126       33.5147    2.0059  -10.2749 H         1 UNK         0.0754 
    127 H127       35.2389    0.3719  -12.2098 H         1 UNK         0.0769 
    128 H128       35.6058    1.9847  -11.6122 H         1 UNK         0.0769 
    129 H129       34.2091    1.7369  -12.6437 H         1 UNK         0.0769 
    130 H130       33.0412    0.3826   -8.3031 H         1 UNK         0.2981 
    131 H131       35.3002   -1.0778   -7.2704 H         1 UNK         0.0541 
    132 H132       36.7002   -0.5357   -5.4618 H         1 UNK         0.3459 
    133 H133       36.9907    1.1333   -5.0470 H         1 UNK         0.3459 
    134 H134       33.9363   -1.1743   -5.1480 H         1 UNK         0.0612 
    135 H135       32.7779   -0.0746   -5.8581 H         1 UNK         0.0612 
    136 H136       30.3154   -2.7453   -6.8285 H         1 UNK         0.0624 
    137 H137       30.6115   -1.0325   -6.6621 H         1 UNK         0.0624 
@<TRIPOS>BOND
     1    1    2 1    
     2    1   72 1    
     3    1   73 1    
     4    1   74 1    
     5    2    3 2    
     6    2    4 am   BACKBONE|DICT|INTERRES
     7    4    5 1    
     8    4   75 1    
     9    5    6 1    
    10    5   35 1    
    11    5   76 1    
    12    6    7 1    
    13    6   77 1    
    14    6   78 1    
    15    7    8 1    
    16    8    9 1    
    17    8   79 1    
    18    8   80 1    
    19    9   10 ar   
    20    9   14 ar   
    21   10   11 ar   
    22   10   81 1    
    23   11   12 ar   
    24   11   71 1    
    25   12   13 ar   
    26   12   82 1    
    27   13   14 ar   
    28   13   15 1    
    29   14   83 1    
    30   15   16 1    
    31   15   84 1    
    32   15   85 1    
    33   16   17 1    
    34   17   18 1    
    35   17   86 1    
    36   17   87 1    
    37   18   19 1    
    38   18   37 1    
    39   18   88 1    
    40   19   20 am   BACKBONE|DICT|INTERRES
    41   19   89 1    
    42   20   21 2    
    43   20   22 1    
    44   22   23 1    
    45   22   24 1    
    46   22   90 1    
    47   23   91 1    
    48   23   92 1    
    49   23   93 1    
    50   24   25 am   BACKBONE|DICT|INTERRES
    51   24   94 1    
    52   25   26 2    
    53   25   27 1    
    54   27   28 1    
    55   27   29 1    
    56   27   95 1    
    57   28   96 1    
    58   28   97 1    
    59   28   98 1    
    60   29   30 am   BACKBONE|DICT|INTERRES
    61   29   99 1    
    62   30   31 2    
    63   30   32 1    
    64   32   33 1    
    65   32   34 1    
    66   32  100 1    
    67   33  101 1    
    68   33  102 1    
    69   33  103 1    
    70   34   35 am   BACKBONE|DICT|INTERRES
    71   34  104 1    
    72   35   36 2    
    73   37   38 2    
    74   37   39 am   BACKBONE|DICT|INTERRES
    75   39   40 1    
    76   39  105 1    
    77   40   41 1    
    78   40   42 1    
    79   40  106 1    
    80   41  107 1    
    81   41  108 1    
    82   41  109 1    
    83   42   43 2    
    84   42   44 am   BACKBONE|DICT|INTERRES
    85   44   45 1    
    86   44  110 1    
    87   45   46 1    
    88   45   47 1    
    89   45  111 1    
    90   46  112 1    
    91   46  113 1    
    92   46  114 1    
    93   47   48 2    
    94   47   49 am   BACKBONE|DICT|INTERRES
    95   49   50 1    
    96   49  115 1    
    97   50   51 1    
    98   50   52 1    
    99   50  116 1    
   100   51  117 1    
   101   51  118 1    
   102   51  119 1    
   103   52   53 2    
   104   52   54 am   BACKBONE|DICT|INTERRES
   105   54   55 1    
   106   54  120 1    
   107   55   56 1    
   108   55   57 1    
   109   55  121 1    
   110   56  122 1    
   111   56  123 1    
   112   56  124 1    
   113   57   58 2    
   114   57   59 am   BACKBONE|DICT|INTERRES
   115   59   60 1    
   116   59  125 1    
   117   60   61 1    
   118   60   62 1    
   119   60  126 1    
   120   61  127 1    
   121   61  128 1    
   122   61  129 1    
   123   62   63 2    
   124   62   64 am   BACKBONE|DICT|INTERRES
   125   64   65 1    
   126   64  130 1    
   127   65   66 1    
   128   65   69 1    
   129   65  131 1    
   130   66   67 am   BACKBONE|DICT|INTERRES
   131   66   68 2    
   132   67  132 1    
   133   67  133 1    
   134   69   70 1    
   135   69  134 1    
   136   69  135 1    
   137   70   71 1    
   138   71  136 1    
   139   71  137 1    
@<TRIPOS>SUBSTRUCTURE
     1 UNK         1 GROUP             0       ****    0 ROOT    
