@<TRIPOS>MOLECULE
3R137
137   139    1
SMALL
USER_CHARGES


@<TRIPOS>ATOM
      1 CA         28.8080   -8.2231   -0.8274 C.3       0 UNK        -0.2020 
      2 C          27.6246   -7.2902   -0.6184 C.2       0 UNK         0.4855 
      3 O          26.5494   -7.7433   -0.2254 O.2       0 UNK        -0.5197 
      4 N          27.8152   -5.9898   -0.8773 N.am      1 UNK        -0.4892 
      5 CA         26.7886   -4.9473   -0.7352 C.3       1 UNK         0.0835 
      6 C6         27.4000   -3.5242   -0.7396 C.3       12 UNK        -0.0855 
      7 S7         28.5428   -3.2321    0.6542 S.3       12 UNK        -0.2931 
      8 C8         30.1823   -3.4892   -0.1026 C.3       12 UNK         0.0378 
      9 C9         30.4965   -2.4664   -1.1858 C.ar      12 UNK        -0.0802 
     10 C10        30.4789   -2.8359   -2.5354 C.ar      12 UNK        -0.0944 
     11 C11        30.7783   -1.9084   -3.5384 C.ar      12 UNK        -0.0787 
     12 C12        31.1313   -0.6061   -3.1648 C.ar      12 UNK        -0.0862 
     13 C13        31.1248   -0.2134   -1.8263 C.ar      12 UNK        -0.0733 
     14 C14        30.8140   -1.1506   -0.8377 C.ar      12 UNK        -0.0832 
     15 C15        31.4375    1.2268   -1.4510 C.3       12 UNK         0.0240 
     16 S16        29.9076    2.1968   -1.2672 S.3       12 UNK        -0.2522 
     17 C17        29.6802    2.9453   -2.9219 C.3       12 UNK        -0.0967 
     18 CA         28.9063    2.0684   -3.9502 C.3       5 UNK         0.0660 
     19 N          27.7004    1.4325   -3.4039 N.am      5 UNK        -0.4015 
     20 C          26.5690    2.0374   -3.0192 C.2       4 UNK         0.4946 
     21 O          26.3750    3.2525   -3.0923 O.2       4 UNK        -0.5353 
     22 CA         25.4589    1.1113   -2.4831 C.3       4 UNK         0.0277 
     23 CB         24.2213    1.8883   -1.9947 C.3       4 UNK        -0.1981 
     24 N          25.0357    0.1264   -3.4842 N.am      4 UNK        -0.4209 
     25 C          25.6971   -0.9981   -3.7807 C.2       3 UNK         0.4942 
     26 O          26.7703   -1.3183   -3.2626 O.2       3 UNK        -0.5208 
     27 CA         25.0851   -1.8965   -4.8578 C.3       3 UNK         0.0250 
     28 CB         25.6224   -1.5296   -6.2508 C.3       3 UNK        -0.1990 
     29 N          25.4430   -3.2716   -4.5365 N.am      3 UNK        -0.4232 
     30 C          24.6854   -4.3512   -4.7571 C.2       2 UNK         0.4993 
     31 O          23.6200   -4.3274   -5.3749 O.2       2 UNK        -0.5286 
     32 CA         25.1897   -5.6872   -4.1791 C.3       2 UNK         0.0209 
     33 CB         25.9209   -6.4992   -5.2608 C.3       2 UNK        -0.1931 
     34 N          26.0705   -5.5365   -3.0145 N.am      2 UNK        -0.4546 
     35 C          25.6957   -5.0528   -1.8193 C.2       1 UNK         0.5154 
     36 O          24.5470   -4.6925   -1.5587 O.2       1 UNK        -0.5181 
     37 C          28.6145    2.8175   -5.2713 C.2       5 UNK         0.5014 
     38 O          29.0327    3.9657   -5.4409 O.2       5 UNK        -0.5248 
     39 N          27.8603    2.1676   -6.1689 N.am      6 UNK        -0.4434 
     40 CA         27.3883    2.7512   -7.4231 C.3       6 UNK         0.0363 
     41 CB         26.1813    1.9467   -7.9320 C.3       6 UNK        -0.1936 
     42 C          28.4823    2.7898   -8.4985 C.2       6 UNK         0.5081 
     43 O          29.2477    1.8321   -8.6439 O.2       6 UNK        -0.5248 
     44 N          28.4744    3.8612   -9.3022 N.am      7 UNK        -0.4718 
     45 CA         29.3095    4.0056  -10.4995 C.3       7 UNK         0.0273 
     46 CB         29.2034    5.4419  -11.0348 C.3       7 UNK        -0.1935 
     47 C          28.9449    2.9888  -11.5946 C.2       7 UNK         0.5018 
     48 O          29.8381    2.4927  -12.2790 O.2       7 UNK        -0.5186 
     49 N          27.6523    2.6415  -11.6908 N.am      8 UNK        -0.4240 
     50 CA         27.1225    1.5948  -12.5722 C.3       8 UNK         0.0235 
     51 CB         25.5861    1.6420  -12.5465 C.3       8 UNK        -0.2000 
     52 C          27.6220    0.1805  -12.2186 C.2       8 UNK         0.4941 
     53 O          27.7114   -0.6654  -13.1084 O.2       8 UNK        -0.5273 
     54 N          27.9601   -0.0413  -10.9404 N.am      9 UNK        -0.4262 
     55 CA         28.5863   -1.2659  -10.4365 C.3       9 UNK         0.0264 
     56 CB         28.0925   -1.5172   -9.0015 C.3       9 UNK        -0.1955 
     57 C          30.1264   -1.2045  -10.4862 C.2       9 UNK         0.5031 
     58 O          30.7702   -2.1934  -10.1332 O.2       9 UNK        -0.5390 
     59 N          30.6865   -0.0606  -10.9142 N.am      10 UNK        -0.4204 
     60 CA         32.1125    0.2689  -10.9972 C.3       10 UNK         0.0237 
     61 CB         32.8190   -0.6046  -12.0567 C.3       10 UNK        -0.1985 
     62 C          32.8212    0.2576   -9.6288 C.2       10 UNK         0.4970 
     63 O          33.9900   -0.1281   -9.5552 O.2       10 UNK        -0.4914 
     64 N          32.1159    0.6897   -8.5752 N.am      11 UNK        -0.4285 
     65 CA         32.6247    0.7161   -7.1950 C.3       11 UNK         0.1007 
     66 C          32.2198    1.9831   -6.3904 C.2       11 UNK         0.5703 
     67 N          31.6482    3.0057   -7.0123 N.am      11 UNK        -0.7361 
     68 O          32.4535    2.0570   -5.1872 O.2       11 UNK        -0.4986 
     69 C69        32.3625   -0.6250   -6.4577 C.3       12 UNK        -0.0947 
     70 S70        30.5934   -1.0236   -6.2408 S.3       12 UNK        -0.2240 
     71 C71        30.7014   -2.3606   -4.9996 C.3       12 UNK         0.0194 
     72 H72        29.6951   -7.6896   -1.1683 H         1 UNK         0.0906 
     73 H73        29.0553   -8.7293    0.1054 H         1 UNK         0.0906 
     74 H74        28.5615   -8.9808   -1.5709 H         1 UNK         0.0906 
     75 H75        28.7245   -5.6729   -1.1776 H         1 UNK         0.3140 
     76 H76        26.2914   -5.0980    0.2261 H         1 UNK         0.1085 
     77 H77        27.8987   -3.3177   -1.6868 H         1 UNK         0.0836 
     78 H78        26.6098   -2.7744   -0.6598 H         1 UNK         0.0836 
     79 H79        30.2505   -4.5039   -0.4953 H         1 UNK         0.0731 
     80 H80        30.9398   -3.4217    0.6798 H         1 UNK         0.0731 
     81 H81        30.2223   -3.8499   -2.8096 H         1 UNK         0.1312 
     82 H82        31.3951    0.1254   -3.9102 H         1 UNK         0.1406 
     83 H83        30.8085   -0.8545    0.2028 H         1 UNK         0.1631 
     84 H84        32.0955    1.6885   -2.1892 H         1 UNK         0.0717 
     85 H85        31.9811    1.2470   -0.5054 H         1 UNK         0.0717 
     86 H86        29.1474    3.8852   -2.7653 H         1 UNK         0.0934 
     87 H87        30.6560    3.2241   -3.3239 H         1 UNK         0.0934 
     88 H88        29.5558    1.2491   -4.2429 H         1 UNK         0.0739 
     89 H89        27.7348    0.4213   -3.3071 H         1 UNK         0.3093 
     90 H90        25.8744    0.5814   -1.6225 H         1 UNK         0.0818 
     91 H91        24.4925    2.6078   -1.2209 H         1 UNK         0.0819 
     92 H92        23.7460    2.4438   -2.8042 H         1 UNK         0.0819 
     93 H93        23.4767    1.2189   -1.5636 H         1 UNK         0.0819 
     94 H94        24.1836    0.3368   -3.9845 H         1 UNK         0.3041 
     95 H95        23.9987   -1.7840   -4.8377 H         1 UNK         0.0784 
     96 H96        25.3272   -0.5173   -6.5245 H         1 UNK         0.0793 
     97 H97        26.7116   -1.5811   -6.2888 H         1 UNK         0.0793 
     98 H98        25.2289   -2.1986   -7.0163 H         1 UNK         0.0793 
     99 H99        26.2859   -3.3611   -3.9839 H         1 UNK         0.3024 
    100 H100       24.3095   -6.2507   -3.8605 H         1 UNK         0.1171 
    101 H101       25.2812   -6.6545   -6.1309 H         1 UNK         0.0786 
    102 H102       26.8229   -5.9924   -5.6063 H         1 UNK         0.0786 
    103 H103       26.2074   -7.4846   -4.8926 H         1 UNK         0.0786 
    104 H104       27.0299   -5.8302   -3.1267 H         1 UNK         0.2977 
    105 H105       27.5991    1.2116   -5.9833 H         1 UNK         0.3127 
    106 H106       27.0565    3.7720   -7.2198 H         1 UNK         0.0770 
    107 H107       25.7706    2.3873   -8.8413 H         1 UNK         0.0814 
    108 H108       25.3779    1.9306   -7.1953 H         1 UNK         0.0814 
    109 H109       26.4486    0.9156   -8.1633 H         1 UNK         0.0814 
    110 H110       27.8209    4.6084   -9.1129 H         1 UNK         0.2983 
    111 H111       30.3475    3.8221  -10.2135 H         1 UNK         0.0947 
    112 H112       29.8332    5.5767  -11.9155 H         1 UNK         0.0806 
    113 H113       29.5322    6.1676  -10.2905 H         1 UNK         0.0806 
    114 H114       28.1822    5.6948  -11.3229 H         1 UNK         0.0806 
    115 H115       26.9888    3.1139  -11.0946 H         1 UNK         0.3000 
    116 H116       27.4572    1.8141  -13.5886 H         1 UNK         0.0850 
    117 H117       25.1911    1.4483  -11.5483 H         1 UNK         0.0810 
    118 H118       25.1620    0.8914  -13.2153 H         1 UNK         0.0810 
    119 H119       25.2124    2.6121  -12.8748 H         1 UNK         0.0810 
    120 H120       27.8835    0.7192  -10.2795 H         1 UNK         0.3040 
    121 H121       28.2778   -2.1135  -11.0520 H         1 UNK         0.0766 
    122 H122       27.0077   -1.6153   -8.9687 H         1 UNK         0.0812 
    123 H123       28.3800   -0.7095   -8.3282 H         1 UNK         0.0812 
    124 H124       28.5124   -2.4390   -8.5967 H         1 UNK         0.0812 
    125 H125       30.0686    0.6856  -11.2097 H         1 UNK         0.3205 
    126 H126       32.1613    1.3017  -11.3448 H         1 UNK         0.0754 
    127 H127       33.8417   -0.2653  -12.2258 H         1 UNK         0.0769 
    128 H128       32.3022   -0.5591  -13.0153 H         1 UNK         0.0769 
    129 H129       32.8700   -1.6503  -11.7517 H         1 UNK         0.0769 
    130 H130       31.1462    0.9679   -8.6906 H         1 UNK         0.2981 
    131 H131       33.7096    0.8211   -7.2497 H         1 UNK         0.0541 
    132 H132       31.4314    2.9569   -7.9933 H         1 UNK         0.3459 
    133 H133       31.3680    3.8099   -6.4729 H         1 UNK         0.3459 
    134 H134       32.8173   -1.4422   -7.0194 H         1 UNK         0.0612 
    135 H135       32.8636   -0.6285   -5.4891 H         1 UNK         0.0612 
    136 H136       31.5590   -2.9955   -5.2254 H         1 UNK         0.0624 
    137 H137       29.8152   -2.9847   -5.1248 H         1 UNK         0.0624 
@<TRIPOS>BOND
     1    1    2 1    
     2    1   72 1    
     3    1   73 1    
     4    1   74 1    
     5    2    3 2    
     6    2    4 am   BACKBONE|DICT|INTERRES
     7    4    5 1    
     8    4   75 1    
     9    5    6 1    
    10    5   35 1    
    11    5   76 1    
    12    6    7 1    
    13    6   77 1    
    14    6   78 1    
    15    7    8 1    
    16    8    9 1    
    17    8   79 1    
    18    8   80 1    
    19    9   10 ar   
    20    9   14 ar   
    21   10   11 ar   
    22   10   81 1    
    23   11   12 ar   
    24   11   71 1    
    25   12   13 ar   
    26   12   82 1    
    27   13   14 ar   
    28   13   15 1    
    29   14   83 1    
    30   15   16 1    
    31   15   84 1    
    32   15   85 1    
    33   16   17 1    
    34   17   18 1    
    35   17   86 1    
    36   17   87 1    
    37   18   19 1    
    38   18   37 1    
    39   18   88 1    
    40   19   20 am   BACKBONE|DICT|INTERRES
    41   19   89 1    
    42   20   21 2    
    43   20   22 1    
    44   22   23 1    
    45   22   24 1    
    46   22   90 1    
    47   23   91 1    
    48   23   92 1    
    49   23   93 1    
    50   24   25 am   BACKBONE|DICT|INTERRES
    51   24   94 1    
    52   25   26 2    
    53   25   27 1    
    54   27   28 1    
    55   27   29 1    
    56   27   95 1    
    57   28   96 1    
    58   28   97 1    
    59   28   98 1    
    60   29   30 am   BACKBONE|DICT|INTERRES
    61   29   99 1    
    62   30   31 2    
    63   30   32 1    
    64   32   33 1    
    65   32   34 1    
    66   32  100 1    
    67   33  101 1    
    68   33  102 1    
    69   33  103 1    
    70   34   35 am   BACKBONE|DICT|INTERRES
    71   34  104 1    
    72   35   36 2    
    73   37   38 2    
    74   37   39 am   BACKBONE|DICT|INTERRES
    75   39   40 1    
    76   39  105 1    
    77   40   41 1    
    78   40   42 1    
    79   40  106 1    
    80   41  107 1    
    81   41  108 1    
    82   41  109 1    
    83   42   43 2    
    84   42   44 am   BACKBONE|DICT|INTERRES
    85   44   45 1    
    86   44  110 1    
    87   45   46 1    
    88   45   47 1    
    89   45  111 1    
    90   46  112 1    
    91   46  113 1    
    92   46  114 1    
    93   47   48 2    
    94   47   49 am   BACKBONE|DICT|INTERRES
    95   49   50 1    
    96   49  115 1    
    97   50   51 1    
    98   50   52 1    
    99   50  116 1    
   100   51  117 1    
   101   51  118 1    
   102   51  119 1    
   103   52   53 2    
   104   52   54 am   BACKBONE|DICT|INTERRES
   105   54   55 1    
   106   54  120 1    
   107   55   56 1    
   108   55   57 1    
   109   55  121 1    
   110   56  122 1    
   111   56  123 1    
   112   56  124 1    
   113   57   58 2    
   114   57   59 am   BACKBONE|DICT|INTERRES
   115   59   60 1    
   116   59  125 1    
   117   60   61 1    
   118   60   62 1    
   119   60  126 1    
   120   61  127 1    
   121   61  128 1    
   122   61  129 1    
   123   62   63 2    
   124   62   64 am   BACKBONE|DICT|INTERRES
   125   64   65 1    
   126   64  130 1    
   127   65   66 1    
   128   65   69 1    
   129   65  131 1    
   130   66   67 am   BACKBONE|DICT|INTERRES
   131   66   68 2    
   132   67  132 1    
   133   67  133 1    
   134   69   70 1    
   135   69  134 1    
   136   69  135 1    
   137   70   71 1    
   138   71  136 1    
   139   71  137 1    
@<TRIPOS>SUBSTRUCTURE
     1 UNK         1 GROUP             0       ****    0 ROOT    
