@<TRIPOS>MOLECULE
3R137
137   139    1
SMALL
USER_CHARGES


@<TRIPOS>ATOM
      1 CA         24.4602   -4.1304    0.7455 C.3       0 UNK        -0.2020 
      2 C          25.1287   -3.5834   -0.5071 C.2       0 UNK         0.4855 
      3 O          24.5978   -3.7596   -1.6027 O.2       0 UNK        -0.5197 
      4 N          26.2878   -2.9297   -0.3438 N.am      1 UNK        -0.4892 
      5 CA         27.1022   -2.3069   -1.3986 C.3       1 UNK         0.0835 
      6 C6         27.7070   -3.3151   -2.4121 C.3       12 UNK        -0.0855 
      7 S7         28.7927   -4.5389   -1.5994 S.3       12 UNK        -0.2931 
      8 C8         30.4549   -3.8132   -1.8499 C.3       12 UNK         0.0378 
      9 C9         30.8697   -3.6892   -3.3152 C.ar      12 UNK        -0.0802 
     10 C10        31.5812   -2.5642   -3.7463 C.ar      12 UNK        -0.0944 
     11 C11        31.9420   -2.4168   -5.0908 C.ar      12 UNK        -0.0787 
     12 C12        31.5864   -3.4104   -6.0081 C.ar      12 UNK        -0.0862 
     13 C13        30.8722   -4.5368   -5.5918 C.ar      12 UNK        -0.0733 
     14 C14        30.5436   -4.6833   -4.2425 C.ar      12 UNK        -0.0832 
     15 C15        30.4220   -5.5864   -6.5972 C.3       12 UNK         0.0240 
     16 S16        29.0703   -4.9966   -7.6728 S.3       12 UNK        -0.2522 
     17 C17        27.7925   -4.4174   -6.4949 C.3       12 UNK        -0.0967 
     18 CA         27.2250   -3.0265   -6.8774 C.3       5 UNK         0.0660 
     19 N          25.9132   -2.7827   -6.2713 N.am      5 UNK        -0.4015 
     20 C          25.1200   -1.7381   -6.5459 C.2       4 UNK         0.4946 
     21 O          25.4544   -0.8022   -7.2761 O.2       4 UNK        -0.5353 
     22 CA         23.7260   -1.7159   -5.9061 C.3       4 UNK         0.0277 
     23 CB         23.4313   -2.8924   -4.9524 C.3       4 UNK        -0.1981 
     24 N          23.5911   -0.4586   -5.1843 N.am      4 UNK        -0.4209 
     25 C          22.5004    0.3150   -5.1451 C.2       3 UNK         0.4942 
     26 O          21.4497    0.0416   -5.7284 O.2       3 UNK        -0.5208 
     27 CA         22.6016    1.6281   -4.3370 C.3       3 UNK         0.0250 
     28 CB         21.2803    1.9839   -3.6217 C.3       3 UNK        -0.1990 
     29 N          23.7381    1.6722   -3.4029 N.am      3 UNK        -0.4232 
     30 C          23.9526    0.8735   -2.3461 C.2       2 UNK         0.4993 
     31 O          23.1649    0.0151   -1.9436 O.2       2 UNK        -0.5286 
     32 CA         25.2876    1.0794   -1.6159 C.3       2 UNK         0.0209 
     33 CB         25.0878    1.9486   -0.3636 C.3       2 UNK        -0.1931 
     34 N          25.9160   -0.1853   -1.2290 N.am      2 UNK        -0.4546 
     35 C          26.3606   -1.1308   -2.0706 C.2       1 UNK         0.5154 
     36 O          26.2449   -1.0753   -3.3003 O.2       1 UNK        -0.5181 
     37 C          28.2384   -1.8799   -6.6620 C.2       5 UNK         0.5014 
     38 O          29.0040   -1.5968   -7.5836 O.2       5 UNK        -0.5248 
     39 N          28.2008   -1.1896   -5.5084 N.am      6 UNK        -0.4434 
     40 CA         29.0958   -0.0567   -5.2433 C.3       6 UNK         0.0363 
     41 CB         29.0820    0.3378   -3.7597 C.3       6 UNK        -0.1936 
     42 C          28.8044    1.1574   -6.1342 C.2       6 UNK         0.5081 
     43 O          29.7442    1.8136   -6.5824 O.2       6 UNK        -0.5248 
     44 N          27.5166    1.4085   -6.4016 N.am      7 UNK        -0.4718 
     45 CA         27.0595    2.4576   -7.3118 C.3       7 UNK         0.0273 
     46 CB         25.5706    2.7469   -7.0565 C.3       7 UNK        -0.1935 
     47 C          27.3039    2.0852   -8.7826 C.2       7 UNK         0.5018 
     48 O          27.6755    2.9559   -9.5699 O.2       7 UNK        -0.5186 
     49 N          27.0922    0.8056   -9.1217 N.am      8 UNK        -0.4240 
     50 CA         27.2723    0.2654  -10.4686 C.3       8 UNK         0.0235 
     51 CB         26.6057   -1.1164  -10.5665 C.3       8 UNK        -0.2000 
     52 C          28.7464    0.1926  -10.8995 C.2       8 UNK         0.4941 
     53 O          29.0738    0.6586  -11.9918 O.2       8 UNK        -0.5273 
     54 N          29.6017   -0.4080  -10.0594 N.am      9 UNK        -0.4262 
     55 CA         31.0125   -0.6477  -10.3730 C.3       9 UNK         0.0264 
     56 CB         31.5283   -1.8381   -9.5527 C.3       9 UNK        -0.1955 
     57 C          31.9034    0.5809  -10.1398 C.2       9 UNK         0.5031 
     58 O          32.8749    0.7459  -10.8786 O.2       9 UNK        -0.5390 
     59 N          31.5675    1.4033   -9.1310 N.am      10 UNK        -0.4204 
     60 CA         32.2815    2.6130   -8.7012 C.3       10 UNK         0.0237 
     61 CB         32.1384    3.7290   -9.7583 C.3       10 UNK        -0.1985 
     62 C          33.7486    2.3273   -8.3210 C.2       10 UNK         0.4970 
     63 O          34.6656    2.7728   -9.0143 O.2       10 UNK        -0.4914 
     64 N          33.9379    1.5742   -7.2275 N.am      11 UNK        -0.4285 
     65 CA         35.2576    1.1937   -6.6852 C.3       11 UNK         0.1007 
     66 C          36.1458    2.3861   -6.2165 C.2       11 UNK         0.5703 
     67 N          35.5886    3.5534   -5.9147 N.am      11 UNK        -0.7361 
     68 O          37.3632    2.2451   -6.1256 O.2       11 UNK        -0.4986 
     69 C69        35.1462    0.1483   -5.5412 C.3       12 UNK        -0.0947 
     70 S70        34.3781   -1.4354   -6.0263 S.3       12 UNK        -0.2240 
     71 C71        32.6462   -1.1490   -5.5578 C.3       12 UNK         0.0194 
     72 H72        25.0362   -3.9149    1.6452 H         1 UNK         0.0906 
     73 H73        23.4700   -3.6909    0.8633 H         1 UNK         0.0906 
     74 H74        24.3462   -5.2113    0.6673 H         1 UNK         0.0906 
     75 H75        26.6656   -2.8450    0.5900 H         1 UNK         0.3140 
     76 H76        27.9466   -1.8431   -0.8854 H         1 UNK         0.1085 
     77 H77        26.9178   -3.8491   -2.9433 H         1 UNK         0.0836 
     78 H78        28.2813   -2.7952   -3.1788 H         1 UNK         0.0836 
     79 H79        30.4812   -2.8373   -1.3625 H         1 UNK         0.0731 
     80 H80        31.1880   -4.4353   -1.3350 H         1 UNK         0.0731 
     81 H81        31.8383   -1.7900   -3.0362 H         1 UNK         0.1312 
     82 H82        31.8413   -3.2999   -7.0516 H         1 UNK         0.1406 
     83 H83        29.9973   -5.5590   -3.9199 H         1 UNK         0.1631 
     84 H84        30.0957   -6.4953   -6.0892 H         1 UNK         0.0717 
     85 H85        31.2690   -5.8741   -7.2215 H         1 UNK         0.0717 
     86 H86        26.9954   -5.1622   -6.5163 H         1 UNK         0.0934 
     87 H87        28.1602   -4.4147   -5.4696 H         1 UNK         0.0934 
     88 H88        27.0300   -3.0535   -7.9507 H         1 UNK         0.0739 
     89 H89        25.5684   -3.4872   -5.6362 H         1 UNK         0.3093 
     90 H90        23.0109   -1.7487   -6.7306 H         1 UNK         0.0818 
     91 H91        22.4248   -2.8151   -4.5408 H         1 UNK         0.0819 
     92 H92        23.4883   -3.8523   -5.4671 H         1 UNK         0.0819 
     93 H93        24.1231   -2.9139   -4.1092 H         1 UNK         0.0819 
     94 H94        24.4139   -0.1640   -4.6758 H         1 UNK         0.3041 
     95 H95        22.7919    2.4097   -5.0742 H         1 UNK         0.0784 
     96 H96        20.4678    2.1093   -4.3385 H         1 UNK         0.0793 
     97 H97        20.9755    1.2055   -2.9216 H         1 UNK         0.0793 
     98 H98        21.3675    2.9186   -3.0679 H         1 UNK         0.0793 
     99 H99        24.4420    2.3630   -3.6246 H         1 UNK         0.3024 
    100 H100       25.9801    1.5935   -2.2861 H         1 UNK         0.1171 
    101 H101       24.4251    1.4688    0.3580 H         1 UNK         0.0786 
    102 H102       24.6445    2.9115   -0.6217 H         1 UNK         0.0786 
    103 H103       26.0356    2.1540    0.1346 H         1 UNK         0.0786 
    104 H104       26.0125   -0.3500   -0.2379 H         1 UNK         0.2977 
    105 H105       27.4927   -1.3962   -4.8101 H         1 UNK         0.3127 
    106 H106       30.1028   -0.3851   -5.4805 H         1 UNK         0.0770 
    107 H107       29.2829   -0.5171   -3.1151 H         1 UNK         0.0814 
    108 H108       28.1296    0.7781   -3.4670 H         1 UNK         0.0814 
    109 H109       29.8525    1.0821   -3.5547 H         1 UNK         0.0814 
    110 H110       26.8189    0.7637   -6.0579 H         1 UNK         0.2983 
    111 H111       27.6251    3.3686   -7.1020 H         1 UNK         0.0947 
    112 H112       25.2105    3.5380   -7.7156 H         1 UNK         0.0806 
    113 H113       25.4016    3.0787   -6.0324 H         1 UNK         0.0806 
    114 H114       24.9482    1.8688   -7.2332 H         1 UNK         0.0806 
    115 H115       26.7256    0.1739   -8.4148 H         1 UNK         0.3000 
    116 H116       26.7575    0.9331  -11.1632 H         1 UNK         0.0850 
    117 H117       26.6597   -1.5027  -11.5851 H         1 UNK         0.0810 
    118 H118       25.5517   -1.0705  -10.2911 H         1 UNK         0.0810 
    119 H119       27.0901   -1.8449   -9.9174 H         1 UNK         0.0810 
    120 H120       29.2627   -0.7845   -9.1736 H         1 UNK         0.3040 
    121 H121       31.0906   -0.9174  -11.4287 H         1 UNK         0.0766 
    122 H122       32.5554   -2.0866   -9.8229 H         1 UNK         0.0812 
    123 H123       30.9208   -2.7293   -9.7123 H         1 UNK         0.0812 
    124 H124       31.5166   -1.6112   -8.4887 H         1 UNK         0.0812 
    125 H125       30.7511    1.1708   -8.5787 H         1 UNK         0.3205 
    126 H126       31.7880    2.9655   -7.7948 H         1 UNK         0.0754 
    127 H127       32.6064    4.6527   -9.4156 H         1 UNK         0.0769 
    128 H128       31.0895    3.9506   -9.9571 H         1 UNK         0.0769 
    129 H129       32.6077    3.4588  -10.7049 H         1 UNK         0.0769 
    130 H130       33.1340    1.2529   -6.7118 H         1 UNK         0.2981 
    131 H131       35.8023    0.7223   -7.5055 H         1 UNK         0.0541 
    132 H132       34.5920    3.6801   -5.9825 H         1 UNK         0.3459 
    133 H133       36.1753    4.3163   -5.6157 H         1 UNK         0.3459 
    134 H134       34.6196    0.5716   -4.6844 H         1 UNK         0.0612 
    135 H135       36.1421   -0.1047   -5.1719 H         1 UNK         0.0612 
    136 H136       32.5867   -0.3890   -4.7779 H         1 UNK         0.0624 
    137 H137       32.1258   -0.7376   -6.4223 H         1 UNK         0.0624 
@<TRIPOS>BOND
     1    1    2 1    
     2    1   72 1    
     3    1   73 1    
     4    1   74 1    
     5    2    3 2    
     6    2    4 am   BACKBONE|DICT|INTERRES
     7    4    5 1    
     8    4   75 1    
     9    5    6 1    
    10    5   35 1    
    11    5   76 1    
    12    6    7 1    
    13    6   77 1    
    14    6   78 1    
    15    7    8 1    
    16    8    9 1    
    17    8   79 1    
    18    8   80 1    
    19    9   10 ar   
    20    9   14 ar   
    21   10   11 ar   
    22   10   81 1    
    23   11   12 ar   
    24   11   71 1    
    25   12   13 ar   
    26   12   82 1    
    27   13   14 ar   
    28   13   15 1    
    29   14   83 1    
    30   15   16 1    
    31   15   84 1    
    32   15   85 1    
    33   16   17 1    
    34   17   18 1    
    35   17   86 1    
    36   17   87 1    
    37   18   19 1    
    38   18   37 1    
    39   18   88 1    
    40   19   20 am   BACKBONE|DICT|INTERRES
    41   19   89 1    
    42   20   21 2    
    43   20   22 1    
    44   22   23 1    
    45   22   24 1    
    46   22   90 1    
    47   23   91 1    
    48   23   92 1    
    49   23   93 1    
    50   24   25 am   BACKBONE|DICT|INTERRES
    51   24   94 1    
    52   25   26 2    
    53   25   27 1    
    54   27   28 1    
    55   27   29 1    
    56   27   95 1    
    57   28   96 1    
    58   28   97 1    
    59   28   98 1    
    60   29   30 am   BACKBONE|DICT|INTERRES
    61   29   99 1    
    62   30   31 2    
    63   30   32 1    
    64   32   33 1    
    65   32   34 1    
    66   32  100 1    
    67   33  101 1    
    68   33  102 1    
    69   33  103 1    
    70   34   35 am   BACKBONE|DICT|INTERRES
    71   34  104 1    
    72   35   36 2    
    73   37   38 2    
    74   37   39 am   BACKBONE|DICT|INTERRES
    75   39   40 1    
    76   39  105 1    
    77   40   41 1    
    78   40   42 1    
    79   40  106 1    
    80   41  107 1    
    81   41  108 1    
    82   41  109 1    
    83   42   43 2    
    84   42   44 am   BACKBONE|DICT|INTERRES
    85   44   45 1    
    86   44  110 1    
    87   45   46 1    
    88   45   47 1    
    89   45  111 1    
    90   46  112 1    
    91   46  113 1    
    92   46  114 1    
    93   47   48 2    
    94   47   49 am   BACKBONE|DICT|INTERRES
    95   49   50 1    
    96   49  115 1    
    97   50   51 1    
    98   50   52 1    
    99   50  116 1    
   100   51  117 1    
   101   51  118 1    
   102   51  119 1    
   103   52   53 2    
   104   52   54 am   BACKBONE|DICT|INTERRES
   105   54   55 1    
   106   54  120 1    
   107   55   56 1    
   108   55   57 1    
   109   55  121 1    
   110   56  122 1    
   111   56  123 1    
   112   56  124 1    
   113   57   58 2    
   114   57   59 am   BACKBONE|DICT|INTERRES
   115   59   60 1    
   116   59  125 1    
   117   60   61 1    
   118   60   62 1    
   119   60  126 1    
   120   61  127 1    
   121   61  128 1    
   122   61  129 1    
   123   62   63 2    
   124   62   64 am   BACKBONE|DICT|INTERRES
   125   64   65 1    
   126   64  130 1    
   127   65   66 1    
   128   65   69 1    
   129   65  131 1    
   130   66   67 am   BACKBONE|DICT|INTERRES
   131   66   68 2    
   132   67  132 1    
   133   67  133 1    
   134   69   70 1    
   135   69  134 1    
   136   69  135 1    
   137   70   71 1    
   138   71  136 1    
   139   71  137 1    
@<TRIPOS>SUBSTRUCTURE
     1 UNK         1 GROUP             0       ****    0 ROOT    
