@<TRIPOS>MOLECULE
3R137
137   139    1
SMALL
USER_CHARGES


@<TRIPOS>ATOM
      1 CA         24.0510   -4.7279   -6.4343 C.3       0 UNK        -0.2020 
      2 C          24.2248   -4.1606   -5.0339 C.2       0 UNK         0.4855 
      3 O          24.3116   -2.9436   -4.8848 O.2       0 UNK        -0.5197 
      4 N          24.2430   -5.0397   -4.0191 N.am      1 UNK        -0.4892 
      5 CA         24.4919   -4.7986   -2.5837 C.3       1 UNK         0.0835 
      6 C6         25.9945   -4.8932   -2.1898 C.3       12 UNK        -0.0855 
      7 S7         27.1188   -3.6764   -2.9661 S.3       12 UNK        -0.2931 
      8 C8         28.3263   -4.7823   -3.7637 C.3       12 UNK         0.0378 
      9 C9         29.6141   -4.0496   -4.1074 C.ar      12 UNK        -0.0802 
     10 C10        29.9670   -3.8050   -5.4380 C.ar      12 UNK        -0.0944 
     11 C11        31.1667   -3.1537   -5.7442 C.ar      12 UNK        -0.0787 
     12 C12        32.0074   -2.7322   -4.7088 C.ar      12 UNK        -0.0862 
     13 C13        31.6505   -2.9460   -3.3740 C.ar      12 UNK        -0.0733 
     14 C14        30.4661   -3.6292   -3.0822 C.ar      12 UNK        -0.0832 
     15 C15        32.5162   -2.4009   -2.2461 C.3       12 UNK         0.0240 
     16 S16        31.6051   -1.2120   -1.2020 S.3       12 UNK        -0.2522 
     17 C17        31.3072    0.1836   -2.3462 C.3       12 UNK        -0.0967 
     18 CA         30.0374    0.0170   -3.2296 C.3       5 UNK         0.0660 
     19 N          28.8280   -0.3590   -2.4918 N.am      5 UNK        -0.4015 
     20 C          28.1269    0.4010   -1.6425 C.2       4 UNK         0.4946 
     21 O          28.4384    1.5446   -1.3028 O.2       4 UNK        -0.5353 
     22 CA         26.8209   -0.2270   -1.1221 C.3       4 UNK         0.0277 
     23 CB         26.5844    0.1099    0.3605 C.3       4 UNK        -0.1981 
     24 N          25.6342    0.1613   -1.8935 N.am      4 UNK        -0.4209 
     25 C          25.4738    0.1112   -3.2250 C.2       3 UNK         0.4942 
     26 O          26.3527   -0.2133   -4.0246 O.2       3 UNK        -0.5208 
     27 CA         24.0606    0.4241   -3.7328 C.3       3 UNK         0.0250 
     28 CB         24.0097    0.6483   -5.2547 C.3       3 UNK        -0.1990 
     29 N          23.2216   -0.7206   -3.3978 N.am      3 UNK        -0.4232 
     30 C          22.3756   -0.7809   -2.3617 C.2       2 UNK         0.4993 
     31 O          22.1196    0.1780   -1.6323 O.2       2 UNK        -0.5286 
     32 CA         21.7243   -2.1444   -2.0639 C.3       2 UNK         0.0209 
     33 CB         20.3477   -2.2434   -2.7408 C.3       2 UNK        -0.1931 
     34 N          22.5485   -3.2853   -2.4753 N.am      2 UNK        -0.4546 
     35 C          23.7368   -3.6073   -1.9418 C.2       1 UNK         0.5154 
     36 O          24.2157   -3.0197   -0.9697 O.2       1 UNK        -0.5181 
     37 C          29.8099    1.1961   -4.2020 C.2       5 UNK         0.5014 
     38 O          30.7191    1.9987   -4.4191 O.2       5 UNK        -0.5248 
     39 N          28.6119    1.2604   -4.7958 N.am      6 UNK        -0.4434 
     40 CA         28.2143    2.2358   -5.8107 C.3       6 UNK         0.0363 
     41 CB         27.4840    3.4070   -5.1269 C.3       6 UNK        -0.1936 
     42 C          27.3591    1.5755   -6.9080 C.2       6 UNK         0.5081 
     43 O          26.6339    2.2762   -7.6148 O.2       6 UNK        -0.5248 
     44 N          27.4372    0.2416   -7.0286 N.am      7 UNK        -0.4718 
     45 CA         26.6451   -0.5724   -7.9569 C.3       7 UNK         0.0273 
     46 CB         26.7831   -2.0507   -7.5588 C.3       7 UNK        -0.1935 
     47 C          27.0117   -0.3692   -9.4382 C.2       7 UNK         0.5018 
     48 O          26.1802   -0.6309  -10.3086 O.2       7 UNK        -0.5186 
     49 N          28.2355    0.0986   -9.6951 N.am      8 UNK        -0.4240 
     50 CA         28.7761    0.4566  -10.9987 C.3       8 UNK         0.0235 
     51 CB         29.3444   -0.7978  -11.6882 C.3       8 UNK        -0.2000 
     52 C          29.8698    1.5050  -10.7742 C.2       8 UNK         0.4941 
     53 O          30.3753    1.6307   -9.6558 O.2       8 UNK        -0.5273 
     54 N          30.2619    2.2047  -11.8470 N.am      9 UNK        -0.4262 
     55 CA         31.3271    3.2182  -11.8378 C.3       9 UNK         0.0264 
     56 CB         31.3742    3.9149  -13.2077 C.3       9 UNK        -0.1955 
     57 C          32.7198    2.6709  -11.4634 C.2       9 UNK         0.5031 
     58 O          33.5708    3.4407  -11.0162 O.2       9 UNK        -0.5390 
     59 N          32.9232    1.3591  -11.6446 N.am      10 UNK        -0.4204 
     60 CA         34.1287    0.6308  -11.2519 C.3       10 UNK         0.0237 
     61 CB         34.1804   -0.6951  -12.0299 C.3       10 UNK        -0.1985 
     62 C          34.2285    0.3638   -9.7373 C.2       10 UNK         0.4970 
     63 O          35.3282    0.0635   -9.2697 O.2       10 UNK        -0.4914 
     64 N          33.1093    0.4383   -9.0017 N.am      11 UNK        -0.4285 
     65 CA         33.0648    0.1930   -7.5530 C.3       11 UNK         0.1007 
     66 C          33.7261    1.3387   -6.7397 C.2       11 UNK         0.5703 
     67 N          34.3971    1.0138   -5.6422 N.am      11 UNK        -0.7361 
     68 O          33.6139    2.5160   -7.0764 O.2       11 UNK        -0.4986 
     69 C69        31.6255   -0.0800   -7.0447 C.3       12 UNK        -0.0947 
     70 S70        30.7773   -1.4448   -7.9086 S.3       12 UNK        -0.2240 
     71 C71        31.5633   -2.9235   -7.1950 C.3       12 UNK         0.0194 
     72 H72        23.2499   -4.2042   -6.9552 H         1 UNK         0.0906 
     73 H73        24.9701   -4.5979   -7.0045 H         1 UNK         0.0906 
     74 H74        23.8073   -5.7900   -6.4191 H         1 UNK         0.0906 
     75 H75        24.1216   -6.0162   -4.2508 H         1 UNK         0.3140 
     76 H76        24.0207   -5.6549   -2.0977 H         1 UNK         0.1085 
     77 H77        26.1114   -4.8121   -1.1076 H         1 UNK         0.0836 
     78 H78        26.3448   -5.8980   -2.4288 H         1 UNK         0.0836 
     79 H79        28.5685   -5.6097   -3.0951 H         1 UNK         0.0731 
     80 H80        27.8736   -5.2221   -4.6538 H         1 UNK         0.0731 
     81 H81        29.3146   -4.1286   -6.2375 H         1 UNK         0.1312 
     82 H82        32.9287   -2.2176   -4.9435 H         1 UNK         0.1406 
     83 H83        30.1882   -3.8025   -2.0510 H         1 UNK         0.1631 
     84 H84        33.4162   -1.9215   -2.6343 H         1 UNK         0.0717 
     85 H85        32.8523   -3.2318   -1.6245 H         1 UNK         0.0717 
     86 H86        31.2251    1.0922   -1.7470 H         1 UNK         0.0934 
     87 H87        32.1930    0.3149   -2.9707 H         1 UNK         0.0934 
     88 H88        30.2107   -0.8203   -3.9002 H         1 UNK         0.0739 
     89 H89        28.4424   -1.2621   -2.7362 H         1 UNK         0.3093 
     90 H90        26.9095   -1.3121   -1.1970 H         1 UNK         0.0818 
     91 H91        27.4513   -0.1612    0.9646 H         1 UNK         0.0819 
     92 H92        26.4031    1.1752    0.5098 H         1 UNK         0.0819 
     93 H93        25.7297   -0.4370    0.7595 H         1 UNK         0.0819 
     94 H94        24.8276    0.4246   -1.3453 H         1 UNK         0.3041 
     95 H95        23.7080    1.3332   -3.2411 H         1 UNK         0.0784 
     96 H96        22.9972    0.8764   -5.5871 H         1 UNK         0.0793 
     97 H97        24.6449    1.4842   -5.5482 H         1 UNK         0.0793 
     98 H98        24.3493   -0.2325   -5.8008 H         1 UNK         0.0793 
     99 H99        23.4508   -1.5799   -3.8960 H         1 UNK         0.3024 
    100 H100       21.5832   -2.2052   -0.9822 H         1 UNK         0.1171 
    101 H101       20.4288   -2.2068   -3.8280 H         1 UNK         0.0786 
    102 H102       19.7024   -1.4188   -2.4341 H         1 UNK         0.0786 
    103 H103       19.8378   -3.1686   -2.4715 H         1 UNK         0.0786 
    104 H104       22.2341   -3.8130   -3.2769 H         1 UNK         0.2977 
    105 H105       27.8825    0.6002   -4.5187 H         1 UNK         0.3127 
    106 H106       29.1021    2.6245   -6.3141 H         1 UNK         0.0770 
    107 H107       26.5674    3.0748   -4.6382 H         1 UNK         0.0814 
    108 H108       27.2122    4.1788   -5.8480 H         1 UNK         0.0814 
    109 H109       28.1135    3.8786   -4.3722 H         1 UNK         0.0814 
    110 H110       28.0603   -0.2603   -6.4134 H         1 UNK         0.2983 
    111 H111       25.5984   -0.2835   -7.8455 H         1 UNK         0.0947 
    112 H112       26.1672   -2.6848   -8.1975 H         1 UNK         0.0806 
    113 H113       26.4600   -2.2146   -6.5298 H         1 UNK         0.0806 
    114 H114       27.8127   -2.3990   -7.6470 H         1 UNK         0.0806 
    115 H115       28.8498    0.3226   -8.9209 H         1 UNK         0.3000 
    116 H116       27.9870    0.8987  -11.6108 H         1 UNK         0.0850 
    117 H117       30.1469   -1.2493  -11.1029 H         1 UNK         0.0810 
    118 H118       28.5727   -1.5544  -11.8312 H         1 UNK         0.0810 
    119 H119       29.7477   -0.5614  -12.6734 H         1 UNK         0.0810 
    120 H120       29.8021    2.0406  -12.7319 H         1 UNK         0.3040 
    121 H121       31.0642    3.9636  -11.0840 H         1 UNK         0.0766 
    122 H122       30.4232    4.3924  -13.4444 H         1 UNK         0.0812 
    123 H123       31.6092    3.2143  -14.0099 H         1 UNK         0.0812 
    124 H124       32.1372    4.6947  -13.2230 H         1 UNK         0.0812 
    125 H125       32.1692    0.8138  -12.0346 H         1 UNK         0.3205 
    126 H126       34.9987    1.2271  -11.5353 H         1 UNK         0.0754 
    127 H127       35.0874   -1.2529  -11.7922 H         1 UNK         0.0769 
    128 H128       34.1816   -0.5245  -13.1068 H         1 UNK         0.0769 
    129 H129       33.3315   -1.3375  -11.7911 H         1 UNK         0.0769 
    130 H130       32.2416    0.7532   -9.4197 H         1 UNK         0.2981 
    131 H131       33.6493   -0.7099   -7.3679 H         1 UNK         0.0541 
    132 H132       34.8200    1.7483   -5.0969 H         1 UNK         0.3459 
    133 H133       34.5109    0.0539   -5.3603 H         1 UNK         0.3459 
    134 H134       31.0112    0.8147   -7.1584 H         1 UNK         0.0612 
    135 H135       31.6358   -0.2987   -5.9778 H         1 UNK         0.0612 
    136 H136       32.6468   -2.8484   -7.2923 H         1 UNK         0.0624 
    137 H137       31.2696   -3.7892   -7.7903 H         1 UNK         0.0624 
@<TRIPOS>BOND
     1    1    2 1    
     2    1   72 1    
     3    1   73 1    
     4    1   74 1    
     5    2    3 2    
     6    2    4 am   BACKBONE|DICT|INTERRES
     7    4    5 1    
     8    4   75 1    
     9    5    6 1    
    10    5   35 1    
    11    5   76 1    
    12    6    7 1    
    13    6   77 1    
    14    6   78 1    
    15    7    8 1    
    16    8    9 1    
    17    8   79 1    
    18    8   80 1    
    19    9   10 ar   
    20    9   14 ar   
    21   10   11 ar   
    22   10   81 1    
    23   11   12 ar   
    24   11   71 1    
    25   12   13 ar   
    26   12   82 1    
    27   13   14 ar   
    28   13   15 1    
    29   14   83 1    
    30   15   16 1    
    31   15   84 1    
    32   15   85 1    
    33   16   17 1    
    34   17   18 1    
    35   17   86 1    
    36   17   87 1    
    37   18   19 1    
    38   18   37 1    
    39   18   88 1    
    40   19   20 am   BACKBONE|DICT|INTERRES
    41   19   89 1    
    42   20   21 2    
    43   20   22 1    
    44   22   23 1    
    45   22   24 1    
    46   22   90 1    
    47   23   91 1    
    48   23   92 1    
    49   23   93 1    
    50   24   25 am   BACKBONE|DICT|INTERRES
    51   24   94 1    
    52   25   26 2    
    53   25   27 1    
    54   27   28 1    
    55   27   29 1    
    56   27   95 1    
    57   28   96 1    
    58   28   97 1    
    59   28   98 1    
    60   29   30 am   BACKBONE|DICT|INTERRES
    61   29   99 1    
    62   30   31 2    
    63   30   32 1    
    64   32   33 1    
    65   32   34 1    
    66   32  100 1    
    67   33  101 1    
    68   33  102 1    
    69   33  103 1    
    70   34   35 am   BACKBONE|DICT|INTERRES
    71   34  104 1    
    72   35   36 2    
    73   37   38 2    
    74   37   39 am   BACKBONE|DICT|INTERRES
    75   39   40 1    
    76   39  105 1    
    77   40   41 1    
    78   40   42 1    
    79   40  106 1    
    80   41  107 1    
    81   41  108 1    
    82   41  109 1    
    83   42   43 2    
    84   42   44 am   BACKBONE|DICT|INTERRES
    85   44   45 1    
    86   44  110 1    
    87   45   46 1    
    88   45   47 1    
    89   45  111 1    
    90   46  112 1    
    91   46  113 1    
    92   46  114 1    
    93   47   48 2    
    94   47   49 am   BACKBONE|DICT|INTERRES
    95   49   50 1    
    96   49  115 1    
    97   50   51 1    
    98   50   52 1    
    99   50  116 1    
   100   51  117 1    
   101   51  118 1    
   102   51  119 1    
   103   52   53 2    
   104   52   54 am   BACKBONE|DICT|INTERRES
   105   54   55 1    
   106   54  120 1    
   107   55   56 1    
   108   55   57 1    
   109   55  121 1    
   110   56  122 1    
   111   56  123 1    
   112   56  124 1    
   113   57   58 2    
   114   57   59 am   BACKBONE|DICT|INTERRES
   115   59   60 1    
   116   59  125 1    
   117   60   61 1    
   118   60   62 1    
   119   60  126 1    
   120   61  127 1    
   121   61  128 1    
   122   61  129 1    
   123   62   63 2    
   124   62   64 am   BACKBONE|DICT|INTERRES
   125   64   65 1    
   126   64  130 1    
   127   65   66 1    
   128   65   69 1    
   129   65  131 1    
   130   66   67 am   BACKBONE|DICT|INTERRES
   131   66   68 2    
   132   67  132 1    
   133   67  133 1    
   134   69   70 1    
   135   69  134 1    
   136   69  135 1    
   137   70   71 1    
   138   71  136 1    
   139   71  137 1    
@<TRIPOS>SUBSTRUCTURE
     1 UNK         1 GROUP             0       ****    0 ROOT    
