@<TRIPOS>MOLECULE
3R137
137   139    1
SMALL
USER_CHARGES


@<TRIPOS>ATOM
      1 CA         24.1093   -6.4404   -4.1084 C.3       0 UNK        -0.2020 
      2 C          24.8421   -5.6938   -3.0043 C.2       0 UNK         0.4855 
      3 O          24.2576   -5.4249   -1.9547 O.2       0 UNK        -0.5197 
      4 N          26.1158   -5.3480   -3.2330 N.am      1 UNK        -0.4892 
      5 CA         26.9790   -4.6146   -2.3004 C.3       1 UNK         0.0835 
      6 C6         28.4748   -4.8485   -2.6425 C.3       12 UNK        -0.0855 
      7 S7         29.5640   -4.5746   -1.2085 S.3       12 UNK        -0.2931 
      8 C8         31.1407   -4.1543   -2.0313 C.3       12 UNK         0.0378 
      9 C9         31.1952   -2.7460   -2.6227 C.ar      12 UNK        -0.0802 
     10 C10        31.9141   -2.5171   -3.8006 C.ar      12 UNK        -0.0944 
     11 C11        32.0448   -1.2237   -4.3184 C.ar      12 UNK        -0.0787 
     12 C12        31.4160   -0.1547   -3.6733 C.ar      12 UNK        -0.0862 
     13 C13        30.6908   -0.3671   -2.4981 C.ar      12 UNK        -0.0733 
     14 C14        30.5984   -1.6603   -1.9729 C.ar      12 UNK        -0.0832 
     15 C15        30.0423    0.7994   -1.7658 C.3       12 UNK         0.0240 
     16 S16        28.2633    0.5158   -1.5166 S.3       12 UNK        -0.2522 
     17 C17        27.4901    1.8179   -2.5244 C.3       12 UNK        -0.0967 
     18 CA         27.6871    1.7051   -4.0615 C.3       5 UNK         0.0660 
     19 N          27.4944    0.3548   -4.6051 N.am      5 UNK        -0.4015 
     20 C          27.6929    0.0196   -5.8917 C.2       4 UNK         0.4946 
     21 O          28.1383    0.7861   -6.7455 O.2       4 UNK        -0.5353 
     22 CA         27.2559   -1.3842   -6.3288 C.3       4 UNK         0.0277 
     23 CB         28.3696   -2.4132   -6.0733 C.3       4 UNK        -0.1981 
     24 N          26.0093   -1.7870   -5.6747 N.am      4 UNK        -0.4209 
     25 C          24.8096   -1.2567   -5.9635 C.2       3 UNK         0.4942 
     26 O          24.6306   -0.4134   -6.8407 O.2       3 UNK        -0.5208 
     27 CA         23.6102   -1.7063   -5.1108 C.3       3 UNK         0.0250 
     28 CB         22.9904   -2.9874   -5.6904 C.3       3 UNK        -0.1990 
     29 N          23.9565   -1.9229   -3.7062 N.am      3 UNK        -0.4232 
     30 C          24.4064   -0.9733   -2.8732 C.2       2 UNK         0.4993 
     31 O          24.4939    0.2175   -3.1743 O.2       2 UNK        -0.5286 
     32 CA         24.9060   -1.4519   -1.4980 C.3       2 UNK         0.0209 
     33 CB         23.7609   -1.4417   -0.4738 C.3       2 UNK        -0.1931 
     34 N          25.5200   -2.7870   -1.5360 N.am      2 UNK        -0.4546 
     35 C          26.5803   -3.1234   -2.2857 C.2       1 UNK         0.5154 
     36 O          27.1578   -2.3249   -3.0231 O.2       1 UNK        -0.5181 
     37 C          26.7675    2.7267   -4.7610 C.2       5 UNK         0.5014 
     38 O          27.2441    3.7738   -5.2001 O.2       5 UNK        -0.5248 
     39 N          25.4701    2.3934   -4.8494 N.am      6 UNK        -0.4434 
     40 CA         24.4279    3.2195   -5.4621 C.3       6 UNK         0.0363 
     41 CB         23.0504    2.5976   -5.1820 C.3       6 UNK        -0.1936 
     42 C          24.6292    3.4355   -6.9707 C.2       6 UNK         0.5081 
     43 O          24.4767    4.5618   -7.4444 O.2       6 UNK        -0.5248 
     44 N          24.9726    2.3633   -7.6970 N.am      7 UNK        -0.4718 
     45 CA         25.2381    2.3990   -9.1380 C.3       7 UNK         0.0273 
     46 CB         25.1408    0.9711   -9.7000 C.3       7 UNK        -0.1935 
     47 C          26.6021    3.0118   -9.5015 C.2       7 UNK         0.5018 
     48 O          26.7820    3.4070  -10.6541 O.2       7 UNK        -0.5186 
     49 N          27.5362    3.0401   -8.5376 N.am      8 UNK        -0.4240 
     50 CA         28.9678    3.3296   -8.6910 C.3       8 UNK         0.0235 
     51 CB         29.2068    4.7963   -9.1087 C.3       8 UNK        -0.2000 
     52 C          29.6394    2.3027   -9.6250 C.2       8 UNK         0.4941 
     53 O          30.3643    2.6782  -10.5491 O.2       8 UNK        -0.5273 
     54 N          29.3387    1.0222   -9.3800 N.am      9 UNK        -0.4262 
     55 CA         29.7791   -0.1236  -10.1723 C.3       9 UNK         0.0264 
     56 CB         28.5644   -1.0308  -10.4332 C.3       9 UNK        -0.1955 
     57 C          30.8743   -0.8975   -9.4279 C.2       9 UNK         0.5031 
     58 O          30.9859   -0.7802   -8.2062 O.2       9 UNK        -0.5390 
     59 N          31.6365   -1.6993  -10.1860 N.am      10 UNK        -0.4204 
     60 CA         32.7745   -2.5162   -9.7428 C.3       10 UNK         0.0237 
     61 CB         32.3020   -3.6590   -8.8130 C.3       10 UNK        -0.1985 
     62 C          33.9220   -1.6578   -9.1665 C.2       10 UNK         0.4970 
     63 O          34.0764   -0.5063   -9.5808 O.2       10 UNK        -0.4914 
     64 N          34.7296   -2.2379   -8.2661 N.am      11 UNK        -0.4285 
     65 CA         35.8905   -1.6017   -7.6121 C.3       11 UNK         0.1007 
     66 C          37.0491   -1.2030   -8.5819 C.2       11 UNK         0.5703 
     67 N          37.1396   -1.7835   -9.7731 N.am      11 UNK        -0.7361 
     68 O          37.9042   -0.3877   -8.2431 O.2       11 UNK        -0.4986 
     69 C69        35.4702   -0.4545   -6.6435 C.3       12 UNK        -0.0947 
     70 S70        34.6672   -1.0777   -5.1306 S.3       12 UNK        -0.2240 
     71 C71        32.9005   -0.9765   -5.5509 C.3       12 UNK         0.0194 
     72 H72        23.1589   -5.9538   -4.3261 H         1 UNK         0.0906 
     73 H73        24.6891   -6.4791   -5.0305 H         1 UNK         0.0906 
     74 H74        23.9018   -7.4627   -3.7934 H         1 UNK         0.0906 
     75 H75        26.5378   -5.5850   -4.1200 H         1 UNK         0.3140 
     76 H76        26.7992   -5.0156   -1.2998 H         1 UNK         0.1085 
     77 H77        28.7997   -4.2398   -3.4880 H         1 UNK         0.0836 
     78 H78        28.6290   -5.8840   -2.9503 H         1 UNK         0.0836 
     79 H79        31.3423   -4.9010   -2.8012 H         1 UNK         0.0731 
     80 H80        31.9442   -4.2444   -1.2994 H         1 UNK         0.0731 
     81 H81        32.4082   -3.3399   -4.2991 H         1 UNK         0.1312 
     82 H82        31.5132    0.8452   -4.0734 H         1 UNK         0.1406 
     83 H83        30.0548   -1.8167   -1.0515 H         1 UNK         0.1631 
     84 H84        30.2049    1.7387   -2.2960 H         1 UNK         0.0717 
     85 H85        30.5189    0.9112   -0.7911 H         1 UNK         0.0717 
     86 H86        26.4292    1.8023   -2.2677 H         1 UNK         0.0934 
     87 H87        27.8589    2.7833   -2.1719 H         1 UNK         0.0934 
     88 H88        28.7178    1.9840   -4.2894 H         1 UNK         0.0739 
     89 H89        27.1882   -0.3603   -3.9545 H         1 UNK         0.3093 
     90 H90        27.0677   -1.3552   -7.4035 H         1 UNK         0.0818 
     91 H91        29.2350   -2.2027   -6.7026 H         1 UNK         0.0819 
     92 H92        28.7218   -2.3902   -5.0422 H         1 UNK         0.0819 
     93 H93        28.0424   -3.4275   -6.3005 H         1 UNK         0.0819 
     94 H94        26.1022   -2.3910   -4.8684 H         1 UNK         0.3041 
     95 H95        22.8602   -0.9136   -5.1489 H         1 UNK         0.0784 
     96 H96        22.6761   -2.8325   -6.7236 H         1 UNK         0.0793 
     97 H97        23.6983   -3.8168   -5.6879 H         1 UNK         0.0793 
     98 H98        22.1083   -3.2937   -5.1278 H         1 UNK         0.0793 
     99 H99        23.9097   -2.8702   -3.3603 H         1 UNK         0.3024 
    100 H100       25.6681   -0.7450   -1.1671 H         1 UNK         0.1171 
    101 H101       24.1211   -1.6858    0.5258 H         1 UNK         0.0786 
    102 H102       23.2973   -0.4556   -0.4173 H         1 UNK         0.0786 
    103 H103       22.9788   -2.1564   -0.7335 H         1 UNK         0.0786 
    104 H104       25.0386   -3.5282   -1.0411 H         1 UNK         0.2977 
    105 H105       25.1618    1.5291   -4.4083 H         1 UNK         0.3127 
    106 H106       24.4617    4.1995   -4.9814 H         1 UNK         0.0770 
    107 H107       22.9616    1.6017   -5.6172 H         1 UNK         0.0814 
    108 H108       22.2521    3.2107   -5.6024 H         1 UNK         0.0814 
    109 H109       22.8643    2.5112   -4.1113 H         1 UNK         0.0814 
    110 H110       25.0159    1.4514   -7.2478 H         1 UNK         0.2983 
    111 H111       24.4685    3.0081   -9.6175 H         1 UNK         0.0947 
    112 H112       25.3039    0.9606  -10.7785 H         1 UNK         0.0806 
    113 H113       24.1571    0.5385   -9.5165 H         1 UNK         0.0806 
    114 H114       25.8847    0.3121   -9.2502 H         1 UNK         0.0806 
    115 H115       27.2810    2.6445   -7.6404 H         1 UNK         0.3000 
    116 H116       29.4149    3.1888   -7.7054 H         1 UNK         0.0850 
    117 H117       30.2716    5.0319   -9.1034 H         1 UNK         0.0810 
    118 H118       28.7177    5.4871   -8.4220 H         1 UNK         0.0810 
    119 H119       28.8357    5.0013  -10.1131 H         1 UNK         0.0810 
    120 H120       28.8459    0.8092   -8.5147 H         1 UNK         0.3040 
    121 H121       30.1787    0.2130  -11.1313 H         1 UNK         0.0766 
    122 H122       27.7695   -0.4890  -10.9462 H         1 UNK         0.0812 
    123 H123       28.1537   -1.4311   -9.5064 H         1 UNK         0.0812 
    124 H124       28.8338   -1.8799  -11.0624 H         1 UNK         0.0812 
    125 H125       31.4717   -1.6995  -11.1831 H         1 UNK         0.3205 
    126 H126       33.1784   -2.9775  -10.6451 H         1 UNK         0.0754 
    127 H127       33.0986   -4.3774   -8.6185 H         1 UNK         0.0769 
    128 H128       31.4837   -4.2169   -9.2685 H         1 UNK         0.0769 
    129 H129       31.9460   -3.2879   -7.8522 H         1 UNK         0.0769 
    130 H130       34.5493   -3.1944   -7.9997 H         1 UNK         0.2981 
    131 H131       36.3390   -2.3862   -7.0017 H         1 UNK         0.0541 
    132 H132       37.8972   -1.5305  -10.3878 H         1 UNK         0.3459 
    133 H133       36.4602   -2.4676  -10.0635 H         1 UNK         0.3459 
    134 H134       34.8282    0.2754   -7.1379 H         1 UNK         0.0612 
    135 H135       36.3413    0.1054   -6.3003 H         1 UNK         0.0612 
    136 H136       32.6784   -0.0011   -5.9867 H         1 UNK         0.0624 
    137 H137       32.6673   -1.7197   -6.3112 H         1 UNK         0.0624 
@<TRIPOS>BOND
     1    1    2 1    
     2    1   72 1    
     3    1   73 1    
     4    1   74 1    
     5    2    3 2    
     6    2    4 am   BACKBONE|DICT|INTERRES
     7    4    5 1    
     8    4   75 1    
     9    5    6 1    
    10    5   35 1    
    11    5   76 1    
    12    6    7 1    
    13    6   77 1    
    14    6   78 1    
    15    7    8 1    
    16    8    9 1    
    17    8   79 1    
    18    8   80 1    
    19    9   10 ar   
    20    9   14 ar   
    21   10   11 ar   
    22   10   81 1    
    23   11   12 ar   
    24   11   71 1    
    25   12   13 ar   
    26   12   82 1    
    27   13   14 ar   
    28   13   15 1    
    29   14   83 1    
    30   15   16 1    
    31   15   84 1    
    32   15   85 1    
    33   16   17 1    
    34   17   18 1    
    35   17   86 1    
    36   17   87 1    
    37   18   19 1    
    38   18   37 1    
    39   18   88 1    
    40   19   20 am   BACKBONE|DICT|INTERRES
    41   19   89 1    
    42   20   21 2    
    43   20   22 1    
    44   22   23 1    
    45   22   24 1    
    46   22   90 1    
    47   23   91 1    
    48   23   92 1    
    49   23   93 1    
    50   24   25 am   BACKBONE|DICT|INTERRES
    51   24   94 1    
    52   25   26 2    
    53   25   27 1    
    54   27   28 1    
    55   27   29 1    
    56   27   95 1    
    57   28   96 1    
    58   28   97 1    
    59   28   98 1    
    60   29   30 am   BACKBONE|DICT|INTERRES
    61   29   99 1    
    62   30   31 2    
    63   30   32 1    
    64   32   33 1    
    65   32   34 1    
    66   32  100 1    
    67   33  101 1    
    68   33  102 1    
    69   33  103 1    
    70   34   35 am   BACKBONE|DICT|INTERRES
    71   34  104 1    
    72   35   36 2    
    73   37   38 2    
    74   37   39 am   BACKBONE|DICT|INTERRES
    75   39   40 1    
    76   39  105 1    
    77   40   41 1    
    78   40   42 1    
    79   40  106 1    
    80   41  107 1    
    81   41  108 1    
    82   41  109 1    
    83   42   43 2    
    84   42   44 am   BACKBONE|DICT|INTERRES
    85   44   45 1    
    86   44  110 1    
    87   45   46 1    
    88   45   47 1    
    89   45  111 1    
    90   46  112 1    
    91   46  113 1    
    92   46  114 1    
    93   47   48 2    
    94   47   49 am   BACKBONE|DICT|INTERRES
    95   49   50 1    
    96   49  115 1    
    97   50   51 1    
    98   50   52 1    
    99   50  116 1    
   100   51  117 1    
   101   51  118 1    
   102   51  119 1    
   103   52   53 2    
   104   52   54 am   BACKBONE|DICT|INTERRES
   105   54   55 1    
   106   54  120 1    
   107   55   56 1    
   108   55   57 1    
   109   55  121 1    
   110   56  122 1    
   111   56  123 1    
   112   56  124 1    
   113   57   58 2    
   114   57   59 am   BACKBONE|DICT|INTERRES
   115   59   60 1    
   116   59  125 1    
   117   60   61 1    
   118   60   62 1    
   119   60  126 1    
   120   61  127 1    
   121   61  128 1    
   122   61  129 1    
   123   62   63 2    
   124   62   64 am   BACKBONE|DICT|INTERRES
   125   64   65 1    
   126   64  130 1    
   127   65   66 1    
   128   65   69 1    
   129   65  131 1    
   130   66   67 am   BACKBONE|DICT|INTERRES
   131   66   68 2    
   132   67  132 1    
   133   67  133 1    
   134   69   70 1    
   135   69  134 1    
   136   69  135 1    
   137   70   71 1    
   138   71  136 1    
   139   71  137 1    
@<TRIPOS>SUBSTRUCTURE
     1 UNK         1 GROUP             0       ****    0 ROOT    
