@<TRIPOS>MOLECULE
3R137
137   139    1
SMALL
USER_CHARGES


@<TRIPOS>ATOM
      1 CA         26.4641   -0.2386    3.3546 C.3       0 UNK        -0.2020 
      2 C          26.9298   -1.6302    2.9331 C.2       0 UNK         0.4855 
      3 O          26.9746   -2.5301    3.7701 O.2       0 UNK        -0.5197 
      4 N          27.3003   -1.8586    1.6659 N.am      1 UNK        -0.4892 
      5 CA         27.2260   -0.9280    0.5333 C.3       1 UNK         0.0835 
      6 C6         28.1847   -1.3579   -0.6095 C.3       12 UNK        -0.0855 
      7 S7         27.8644   -3.0365   -1.2648 S.3       12 UNK        -0.2931 
      8 C8         29.5459   -3.7135   -1.4320 C.3       12 UNK         0.0378 
      9 C9         30.1831   -3.3119   -2.7549 C.ar      12 UNK        -0.0802 
     10 C10        30.8684   -2.1000   -2.8738 C.ar      12 UNK        -0.0944 
     11 C11        31.4656   -1.7242   -4.0820 C.ar      12 UNK        -0.0787 
     12 C12        31.3726   -2.5937   -5.1791 C.ar      12 UNK        -0.0862 
     13 C13        30.7234   -3.8272   -5.0645 C.ar      12 UNK        -0.0733 
     14 C14        30.1156   -4.1718   -3.8541 C.ar      12 UNK        -0.0832 
     15 C15        30.7352   -4.8232   -6.2203 C.3       12 UNK         0.0240 
     16 S16        30.1040   -4.1404   -7.7851 S.3       12 UNK        -0.2522 
     17 C17        28.3555   -3.8442   -7.3726 C.3       12 UNK        -0.0967 
     18 CA         27.7611   -2.5690   -8.0215 C.3       5 UNK         0.0660 
     19 N          26.3114   -2.5448   -7.8096 N.am      5 UNK        -0.4015 
     20 C          25.4491   -1.6378   -8.2871 C.2       4 UNK         0.4946 
     21 O          25.7603   -0.7201   -9.0431 O.2       4 UNK        -0.5353 
     22 CA         23.9984   -1.7417   -7.7790 C.3       4 UNK         0.0277 
     23 CB         23.1776   -2.6755   -8.6823 C.3       4 UNK        -0.1981 
     24 N          23.8899   -2.1833   -6.3807 N.am      4 UNK        -0.4209 
     25 C          24.4693   -1.5703   -5.3383 C.2       3 UNK         0.4942 
     26 O          25.1759   -0.5651   -5.4450 O.2       3 UNK        -0.5208 
     27 CA         24.3031   -2.2418   -3.9669 C.3       3 UNK         0.0250 
     28 CB         25.2652   -3.4358   -3.8448 C.3       3 UNK        -0.1990 
     29 N          24.5877   -1.2992   -2.8847 N.am      3 UNK        -0.4232 
     30 C          23.7612   -0.3271   -2.4758 C.2       2 UNK         0.4993 
     31 O          22.6128   -0.1933   -2.9031 O.2       2 UNK        -0.5286 
     32 CA         24.3046    0.6849   -1.4422 C.3       2 UNK         0.0209 
     33 CB         23.2416    1.0767   -0.3922 C.3       2 UNK        -0.1931 
     34 N          25.5686    0.2946   -0.7936 N.am      2 UNK        -0.4546 
     35 C          25.7758   -0.7462    0.0284 C.2       1 UNK         0.5154 
     36 O          24.8955   -1.5425    0.3641 O.2       1 UNK        -0.5181 
     37 C          28.4502   -1.2786   -7.5182 C.2       5 UNK         0.5014 
     38 O          29.2874   -0.7119   -8.2267 O.2       5 UNK        -0.5248 
     39 N          28.0585   -0.8267   -6.3186 N.am      6 UNK        -0.4434 
     40 CA         28.5588    0.3922   -5.6876 C.3       6 UNK         0.0363 
     41 CB         28.2732    0.3414   -4.1793 C.3       6 UNK        -0.1936 
     42 C          27.9475    1.6515   -6.3166 C.2       6 UNK         0.5081 
     43 O          28.6624    2.6344   -6.5026 O.2       6 UNK        -0.5248 
     44 N          26.6530    1.5953   -6.6634 N.am      7 UNK        -0.4718 
     45 CA         25.9208    2.6716   -7.3396 C.3       7 UNK         0.0273 
     46 CB         24.4225    2.3349   -7.3778 C.3       7 UNK        -0.1935 
     47 C          26.4538    2.9594   -8.7543 C.2       7 UNK         0.5018 
     48 O          26.5880    4.1262   -9.1242 O.2       7 UNK        -0.5186 
     49 N          26.7874    1.8968   -9.5010 N.am      8 UNK        -0.4240 
     50 CA         27.4715    1.9661  -10.7962 C.3       8 UNK         0.0235 
     51 CB         27.3025    0.6221  -11.5244 C.3       8 UNK        -0.2000 
     52 C          28.9673    2.3150  -10.6771 C.2       8 UNK         0.4941 
     53 O          29.5785    2.6607  -11.6889 O.2       8 UNK        -0.5273 
     54 N          29.5254    2.2013   -9.4621 N.am      9 UNK        -0.4262 
     55 CA         30.9276    2.4032   -9.0889 C.3       9 UNK         0.0264 
     56 CB         31.3322    3.8842   -9.2433 C.3       9 UNK        -0.1955 
     57 C          31.8793    1.4356   -9.8141 C.2       9 UNK         0.5031 
     58 O          32.9724    1.8349  -10.2207 O.2       9 UNK        -0.5390 
     59 N          31.4672    0.1649   -9.9407 N.am      10 UNK        -0.4204 
     60 CA         32.2582   -0.8995  -10.5731 C.3       10 UNK         0.0237 
     61 CB         31.3605   -2.1180  -10.8278 C.3       10 UNK        -0.1985 
     62 C          33.5166   -1.2811   -9.7681 C.2       10 UNK         0.4970 
     63 O          34.4744   -1.7976  -10.3442 O.2       10 UNK        -0.4914 
     64 N          33.5031   -0.9723   -8.4671 N.am      11 UNK        -0.4285 
     65 CA         34.6610   -0.9343   -7.5636 C.3       11 UNK         0.1007 
     66 C          35.7013    0.1855   -7.8730 C.2       11 UNK         0.5703 
     67 N          35.4216    1.1601   -8.7316 N.am      11 UNK        -0.7361 
     68 O          36.8020    0.1587   -7.3272 O.2       11 UNK        -0.4986 
     69 C69        34.2159   -0.9068   -6.0718 C.3       12 UNK        -0.0947 
     70 S70        32.7893    0.1983   -5.7490 S.3       12 UNK        -0.2240 
     71 C71        32.2154   -0.3879   -4.1180 C.3       12 UNK         0.0194 
     72 H72        25.5450    0.0397    2.8404 H         1 UNK         0.0906 
     73 H73        26.2615   -0.2137    4.4252 H         1 UNK         0.0906 
     74 H74        27.2279    0.5106    3.1491 H         1 UNK         0.0906 
     75 H75        27.5658   -2.7985    1.4070 H         1 UNK         0.3140 
     76 H76        27.5639    0.0506    0.8794 H         1 UNK         0.1085 
     77 H77        28.1485   -0.6486   -1.4362 H         1 UNK         0.0836 
     78 H78        29.2093   -1.3081   -0.2386 H         1 UNK         0.0836 
     79 H79        30.1700   -3.3993   -0.5942 H         1 UNK         0.0731 
     80 H80        29.4870   -4.8010   -1.3655 H         1 UNK         0.0731 
     81 H81        30.9376   -1.4426   -2.0182 H         1 UNK         0.1312 
     82 H82        31.8166   -2.3378   -6.1289 H         1 UNK         0.1406 
     83 H83        29.6082   -5.1222   -3.7572 H         1 UNK         0.1631 
     84 H84        30.1597   -5.7168   -5.9732 H         1 UNK         0.0717 
     85 H85        31.7618   -5.1561   -6.3782 H         1 UNK         0.0717 
     86 H86        28.2312   -3.8112   -6.2886 H         1 UNK         0.0934 
     87 H87        27.8014   -4.7227   -7.7075 H         1 UNK         0.0934 
     88 H88        27.9240   -2.6221   -9.1002 H         1 UNK         0.0739 
     89 H89        25.9391   -3.2628   -7.2070 H         1 UNK         0.3093 
     90 H90        23.5592   -0.7449   -7.8372 H         1 UNK         0.0818 
     91 H91        22.1248   -2.6778   -8.3995 H         1 UNK         0.0819 
     92 H92        23.2292   -2.3539   -9.7237 H         1 UNK         0.0819 
     93 H93        23.5397   -3.7035   -8.6408 H         1 UNK         0.0819 
     94 H94        23.3309   -3.0074   -6.2094 H         1 UNK         0.3041 
     95 H95        23.2750   -2.5965   -3.8672 H         1 UNK         0.0784 
     96 H96        26.3057   -3.1338   -3.9746 H         1 UNK         0.0793 
     97 H97        25.1784   -3.9144   -2.8689 H         1 UNK         0.0793 
     98 H98        25.0498   -4.1980   -4.5945 H         1 UNK         0.0793 
     99 H99        25.5159   -1.3321   -2.4918 H         1 UNK         0.3024 
    100 H100       24.5322    1.5828   -2.0197 H         1 UNK         0.1171 
    101 H101       22.3664    1.5218   -0.8673 H         1 UNK         0.0786 
    102 H102       23.6311    1.8106    0.3132 H         1 UNK         0.0786 
    103 H103       22.8946    0.2140    0.1770 H         1 UNK         0.0786 
    104 H104       26.3562    0.8897   -1.0130 H         1 UNK         0.2977 
    105 H105       27.2977   -1.2925   -5.8447 H         1 UNK         0.3127 
    106 H106       29.6412    0.4317   -5.8290 H         1 UNK         0.0770 
    107 H107       27.2049    0.3726   -3.9637 H         1 UNK         0.0814 
    108 H108       28.7360    1.1864   -3.6684 H         1 UNK         0.0814 
    109 H109       28.6765   -0.5689   -3.7386 H         1 UNK         0.0814 
    110 H110       26.1238    0.7630   -6.4128 H         1 UNK         0.2983 
    111 H111       26.0509    3.5793   -6.7462 H         1 UNK         0.0947 
    112 H112       23.8473    3.1704   -7.7787 H         1 UNK         0.0806 
    113 H113       24.0353    2.1203   -6.3814 H         1 UNK         0.0806 
    114 H114       24.2217    1.4710   -8.0103 H         1 UNK         0.0806 
    115 H115       26.5631    0.9642   -9.1571 H         1 UNK         0.3000 
    116 H116       26.9982    2.7460  -11.3963 H         1 UNK         0.0850 
    117 H117       27.7646    0.6492  -12.5121 H         1 UNK         0.0810 
    118 H118       26.2497    0.3769  -11.6655 H         1 UNK         0.0810 
    119 H119       27.7647   -0.1957  -10.9692 H         1 UNK         0.0810 
    120 H120       28.9228    1.9127   -8.7026 H         1 UNK         0.3040 
    121 H121       30.9969    2.1532   -8.0290 H         1 UNK         0.0766 
    122 H122       32.3325    4.0590   -8.8453 H         1 UNK         0.0812 
    123 H123       30.6495    4.5383   -8.7008 H         1 UNK         0.0812 
    124 H124       31.3390    4.1961  -10.2881 H         1 UNK         0.0812 
    125 H125       30.5845   -0.1062   -9.5096 H         1 UNK         0.3205 
    126 H126       32.6019   -0.5285  -11.5410 H         1 UNK         0.0754 
    127 H127       31.9249   -2.9403  -11.2696 H         1 UNK         0.0769 
    128 H128       30.5487   -1.8743  -11.5134 H         1 UNK         0.0769 
    129 H129       30.9162   -2.4816   -9.9039 H         1 UNK         0.0769 
    130 H130       32.6636   -0.5580   -8.0898 H         1 UNK         0.2981 
    131 H131       35.2038   -1.8688   -7.7168 H         1 UNK         0.0541 
    132 H132       36.1213    1.8620   -8.9112 H         1 UNK         0.3459 
    133 H133       34.5257    1.2199   -9.2043 H         1 UNK         0.3459 
    134 H134       35.0355   -0.6170   -5.4115 H         1 UNK         0.0612 
    135 H135       33.9612   -1.9196   -5.7629 H         1 UNK         0.0612 
    136 H136       33.0746   -0.4465   -3.4485 H         1 UNK         0.0624 
    137 H137       31.5605    0.3836   -3.7105 H         1 UNK         0.0624 
@<TRIPOS>BOND
     1    1    2 1    
     2    1   72 1    
     3    1   73 1    
     4    1   74 1    
     5    2    3 2    
     6    2    4 am   BACKBONE|DICT|INTERRES
     7    4    5 1    
     8    4   75 1    
     9    5    6 1    
    10    5   35 1    
    11    5   76 1    
    12    6    7 1    
    13    6   77 1    
    14    6   78 1    
    15    7    8 1    
    16    8    9 1    
    17    8   79 1    
    18    8   80 1    
    19    9   10 ar   
    20    9   14 ar   
    21   10   11 ar   
    22   10   81 1    
    23   11   12 ar   
    24   11   71 1    
    25   12   13 ar   
    26   12   82 1    
    27   13   14 ar   
    28   13   15 1    
    29   14   83 1    
    30   15   16 1    
    31   15   84 1    
    32   15   85 1    
    33   16   17 1    
    34   17   18 1    
    35   17   86 1    
    36   17   87 1    
    37   18   19 1    
    38   18   37 1    
    39   18   88 1    
    40   19   20 am   BACKBONE|DICT|INTERRES
    41   19   89 1    
    42   20   21 2    
    43   20   22 1    
    44   22   23 1    
    45   22   24 1    
    46   22   90 1    
    47   23   91 1    
    48   23   92 1    
    49   23   93 1    
    50   24   25 am   BACKBONE|DICT|INTERRES
    51   24   94 1    
    52   25   26 2    
    53   25   27 1    
    54   27   28 1    
    55   27   29 1    
    56   27   95 1    
    57   28   96 1    
    58   28   97 1    
    59   28   98 1    
    60   29   30 am   BACKBONE|DICT|INTERRES
    61   29   99 1    
    62   30   31 2    
    63   30   32 1    
    64   32   33 1    
    65   32   34 1    
    66   32  100 1    
    67   33  101 1    
    68   33  102 1    
    69   33  103 1    
    70   34   35 am   BACKBONE|DICT|INTERRES
    71   34  104 1    
    72   35   36 2    
    73   37   38 2    
    74   37   39 am   BACKBONE|DICT|INTERRES
    75   39   40 1    
    76   39  105 1    
    77   40   41 1    
    78   40   42 1    
    79   40  106 1    
    80   41  107 1    
    81   41  108 1    
    82   41  109 1    
    83   42   43 2    
    84   42   44 am   BACKBONE|DICT|INTERRES
    85   44   45 1    
    86   44  110 1    
    87   45   46 1    
    88   45   47 1    
    89   45  111 1    
    90   46  112 1    
    91   46  113 1    
    92   46  114 1    
    93   47   48 2    
    94   47   49 am   BACKBONE|DICT|INTERRES
    95   49   50 1    
    96   49  115 1    
    97   50   51 1    
    98   50   52 1    
    99   50  116 1    
   100   51  117 1    
   101   51  118 1    
   102   51  119 1    
   103   52   53 2    
   104   52   54 am   BACKBONE|DICT|INTERRES
   105   54   55 1    
   106   54  120 1    
   107   55   56 1    
   108   55   57 1    
   109   55  121 1    
   110   56  122 1    
   111   56  123 1    
   112   56  124 1    
   113   57   58 2    
   114   57   59 am   BACKBONE|DICT|INTERRES
   115   59   60 1    
   116   59  125 1    
   117   60   61 1    
   118   60   62 1    
   119   60  126 1    
   120   61  127 1    
   121   61  128 1    
   122   61  129 1    
   123   62   63 2    
   124   62   64 am   BACKBONE|DICT|INTERRES
   125   64   65 1    
   126   64  130 1    
   127   65   66 1    
   128   65   69 1    
   129   65  131 1    
   130   66   67 am   BACKBONE|DICT|INTERRES
   131   66   68 2    
   132   67  132 1    
   133   67  133 1    
   134   69   70 1    
   135   69  134 1    
   136   69  135 1    
   137   70   71 1    
   138   71  136 1    
   139   71  137 1    
@<TRIPOS>SUBSTRUCTURE
     1 UNK         1 GROUP             0       ****    0 ROOT    
