@<TRIPOS>MOLECULE
3R137
137   139    1
SMALL
USER_CHARGES


@<TRIPOS>ATOM
      1 CA         29.9223   -5.0826   -1.7149 C.3       0 UNK        -0.2020 
      2 C          29.1346   -4.0237   -0.9580 C.2       0 UNK         0.4855 
      3 O          28.5817   -4.3119    0.1032 O.2       0 UNK        -0.5197 
      4 N          29.0873   -2.7982   -1.4956 N.am      1 UNK        -0.4892 
      5 CA         28.4319   -1.6254   -0.8985 C.3       1 UNK         0.0835 
      6 C6         28.7337   -0.3294   -1.6927 C.3       12 UNK        -0.0855 
      7 S7         30.5065   -0.0034   -1.9786 S.3       12 UNK        -0.2931 
      8 C8         30.5650    0.1185   -3.7968 C.3       12 UNK         0.0378 
      9 C9         30.8323   -1.2321   -4.4445 C.ar      12 UNK        -0.0802 
     10 C10        32.1204   -1.5389   -4.8888 C.ar      12 UNK        -0.0944 
     11 C11        32.3954   -2.7691   -5.4954 C.ar      12 UNK        -0.0787 
     12 C12        31.3658   -3.7035   -5.6351 C.ar      12 UNK        -0.0862 
     13 C13        30.0704   -3.4099   -5.1989 C.ar      12 UNK        -0.0733 
     14 C14        29.8048   -2.1649   -4.6184 C.ar      12 UNK        -0.0832 
     15 C15        28.9701   -4.4476   -5.3609 C.3       12 UNK         0.0240 
     16 S16        27.9328   -4.1075   -6.8158 S.3       12 UNK        -0.2522 
     17 C17        26.5241   -3.2512   -6.0427 C.3       12 UNK        -0.0967 
     18 CA         25.8654   -2.2023   -6.9686 C.3       5 UNK         0.0660 
     19 N          24.4985   -1.9139   -6.5384 N.am      5 UNK        -0.4015 
     20 C          23.5156   -1.4729   -7.3338 C.2       4 UNK         0.4946 
     21 O          23.6333   -1.3178   -8.5491 O.2       4 UNK        -0.5353 
     22 CA         22.1698   -1.1453   -6.6608 C.3       4 UNK         0.0277 
     23 CB         21.2108   -2.3420   -6.7692 C.3       4 UNK        -0.1981 
     24 N          22.3063   -0.7600   -5.2524 N.am      4 UNK        -0.4209 
     25 C          22.8463    0.3939   -4.8354 C.2       3 UNK         0.4942 
     26 O          23.2476    1.2755   -5.5949 O.2       3 UNK        -0.5208 
     27 CA         23.0043    0.5744   -3.3148 C.3       3 UNK         0.0250 
     28 CB         21.7124    1.1393   -2.7028 C.3       3 UNK        -0.1990 
     29 N          23.4005   -0.6437   -2.5922 N.am      3 UNK        -0.4232 
     30 C          24.5212   -1.3396   -2.8273 C.2       2 UNK         0.4993 
     31 O          25.2905   -1.1008   -3.7618 O.2       2 UNK        -0.5286 
     32 CA         24.8335   -2.5214   -1.8966 C.3       2 UNK         0.0209 
     33 CB         24.3981   -3.8456   -2.5438 C.3       2 UNK        -0.1931 
     34 N          26.2747   -2.5591   -1.6425 N.am      2 UNK        -0.4546 
     35 C          26.8981   -1.7577   -0.7676 C.2       1 UNK         0.5154 
     36 O          26.3057   -1.0872    0.0798 O.2       1 UNK        -0.5181 
     37 C          26.6749   -0.8951   -7.0570 C.2       5 UNK         0.5014 
     38 O          27.3270   -0.6541   -8.0730 O.2       5 UNK        -0.5248 
     39 N          26.5573   -0.0431   -6.0251 N.am      6 UNK        -0.4434 
     40 CA         27.1847    1.2807   -5.9106 C.3       6 UNK         0.0363 
     41 CB         26.8077    1.8972   -4.5536 C.3       6 UNK        -0.1936 
     42 C          26.8319    2.2658   -7.0402 C.2       6 UNK         0.5081 
     43 O          27.5797    3.2153   -7.2731 O.2       6 UNK        -0.5248 
     44 N          25.7093    2.0253   -7.7287 N.am      7 UNK        -0.4718 
     45 CA         25.2908    2.7470   -8.9296 C.3       7 UNK         0.0273 
     46 CB         23.8306    2.3794   -9.2401 C.3       7 UNK        -0.1935 
     47 C          26.1867    2.4847  -10.1581 C.2       7 UNK         0.5018 
     48 O          26.1297    3.2742  -11.1023 O.2       7 UNK        -0.5186 
     49 N          26.9733    1.3978  -10.1440 N.am      8 UNK        -0.4240 
     50 CA         27.8473    0.9863  -11.2438 C.3       8 UNK         0.0235 
     51 CB         27.2765   -0.2849  -11.8963 C.3       8 UNK        -0.2000 
     52 C          29.2946    0.7554  -10.7851 C.2       8 UNK         0.4941 
     53 O          30.2148    1.2251  -11.4564 O.2       8 UNK        -0.5273 
     54 N          29.4832    0.0208   -9.6823 N.am      9 UNK        -0.4262 
     55 CA         30.7914   -0.3676   -9.1571 C.3       9 UNK         0.0264 
     56 CB         30.6609   -1.7490   -8.5002 C.3       9 UNK        -0.1955 
     57 C          31.3050    0.6641   -8.1428 C.2       9 UNK         0.5031 
     58 O          30.5121    1.2221   -7.3819 O.2       9 UNK        -0.5390 
     59 N          32.6266    0.8761   -8.1285 N.am      10 UNK        -0.4204 
     60 CA         33.3078    1.8297   -7.2521 C.3       10 UNK         0.0237 
     61 CB         33.1321    3.2681   -7.7852 C.3       10 UNK        -0.1985 
     62 C          34.7806    1.4267   -7.0816 C.2       10 UNK         0.4970 
     63 O          35.6769    2.2066   -7.4074 O.2       10 UNK        -0.4914 
     64 N          35.0060    0.2021   -6.5890 N.am      11 UNK        -0.4285 
     65 CA         36.3388   -0.3428   -6.2691 C.3       11 UNK         0.1007 
     66 C          37.0399    0.2920   -5.0294 C.2       11 UNK         0.5703 
     67 N          36.3592    1.0812   -4.2061 N.am      11 UNK        -0.7361 
     68 O          38.2312    0.0739   -4.8209 O.2       11 UNK        -0.4986 
     69 C69        36.3295   -1.8952   -6.2012 C.3       12 UNK        -0.0947 
     70 S70        35.1461   -2.5732   -4.9839 S.3       12 UNK        -0.2240 
     71 C71        33.7728   -3.0740   -6.0738 C.3       12 UNK         0.0194 
     72 H72        30.6058   -5.5962   -1.0393 H         1 UNK         0.0906 
     73 H73        29.2452   -5.8222   -2.1413 H         1 UNK         0.0906 
     74 H74        30.5131   -4.6517   -2.5232 H         1 UNK         0.0906 
     75 H75        29.6254   -2.6072   -2.3297 H         1 UNK         0.3140 
     76 H76        28.8301   -1.5106    0.1120 H         1 UNK         0.1085 
     77 H77        28.2158   -0.3599   -2.6512 H         1 UNK         0.0836 
     78 H78        28.3287    0.5378   -1.1665 H         1 UNK         0.0836 
     79 H79        29.6428    0.5498   -4.1839 H         1 UNK         0.0731 
     80 H80        31.3515    0.8245   -4.0684 H         1 UNK         0.0731 
     81 H81        32.9070   -0.8089   -4.7666 H         1 UNK         0.1312 
     82 H82        31.5668   -4.6553   -6.1078 H         1 UNK         0.1406 
     83 H83        28.8009   -1.9204   -4.3046 H         1 UNK         0.1631 
     84 H84        28.3609   -4.4991   -4.4575 H         1 UNK         0.0717 
     85 H85        29.4074   -5.4405   -5.4778 H         1 UNK         0.0717 
     86 H86        25.7992   -4.0281   -5.7948 H         1 UNK         0.0934 
     87 H87        26.8167   -2.8076   -5.0910 H         1 UNK         0.0934 
     88 H88        25.8142   -2.6256   -7.9747 H         1 UNK         0.0739 
     89 H89        24.3335   -1.9420   -5.5415 H         1 UNK         0.3093 
     90 H90        21.7304   -0.3045   -7.2024 H         1 UNK         0.0818 
     91 H91        20.2267   -2.1000   -6.3673 H         1 UNK         0.0819 
     92 H92        21.0695   -2.6346   -7.8107 H         1 UNK         0.0819 
     93 H93        21.5882   -3.2145   -6.2344 H         1 UNK         0.0819 
     94 H94        21.9894   -1.4223   -4.5590 H         1 UNK         0.3041 
     95 H95        23.7975    1.3090   -3.1613 H         1 UNK         0.0784 
     96 H96        21.4081    2.0558   -3.2108 H         1 UNK         0.0793 
     97 H97        20.8843    0.4336   -2.7802 H         1 UNK         0.0793 
     98 H98        21.8466    1.3863   -1.6495 H         1 UNK         0.0793 
     99 H99        22.8120   -0.9160   -1.8175 H         1 UNK         0.3024 
    100 H100       24.2998   -2.3939   -0.9518 H         1 UNK         0.1171 
    101 H101       23.3245   -3.8534   -2.7367 H         1 UNK         0.0786 
    102 H102       24.6144   -4.6923   -1.8919 H         1 UNK         0.0786 
    103 H103       24.9024   -4.0202   -3.4943 H         1 UNK         0.0786 
    104 H104       26.8416   -3.0565   -2.3116 H         1 UNK         0.2977 
    105 H105       26.0087   -0.3438   -5.2200 H         1 UNK         0.3127 
    106 H106       28.2639    1.1291   -5.9444 H         1 UNK         0.0770 
    107 H107       25.7417    2.1202   -4.5007 H         1 UNK         0.0814 
    108 H108       27.3447    2.8322   -4.3881 H         1 UNK         0.0814 
    109 H109       27.0475    1.2349   -3.7250 H         1 UNK         0.0814 
    110 H110       25.1240    1.2580   -7.4280 H         1 UNK         0.2983 
    111 H111       25.3391    3.8167   -8.7146 H         1 UNK         0.0947 
    112 H112       23.4595    2.9421  -10.0978 H         1 UNK         0.0806 
    113 H113       23.1760    2.6038   -8.3973 H         1 UNK         0.0806 
    114 H114       23.7238    1.3195   -9.4746 H         1 UNK         0.0806 
    115 H115       26.9783    0.8089   -9.3159 H         1 UNK         0.3000 
    116 H116       27.8840    1.7655  -12.0082 H         1 UNK         0.0850 
    117 H117       27.9165   -0.6293  -12.7098 H         1 UNK         0.0810 
    118 H118       26.2876   -0.1018  -12.3171 H         1 UNK         0.0810 
    119 H119       27.1878   -1.1023  -11.1792 H         1 UNK         0.0810 
    120 H120       28.6799   -0.2758   -9.1287 H         1 UNK         0.3040 
    121 H121       31.5035   -0.4471   -9.9814 H         1 UNK         0.0766 
    122 H122       31.6321   -2.1166   -8.1714 H         1 UNK         0.0812 
    123 H123       30.2543   -2.4858   -9.1929 H         1 UNK         0.0812 
    124 H124       30.0068   -1.7171   -7.6276 H         1 UNK         0.0812 
    125 H125       33.2178    0.3678   -8.7731 H         1 UNK         0.3205 
    126 H126       32.8564    1.7792   -6.2587 H         1 UNK         0.0754 
    127 H127       33.6413    3.9894   -7.1445 H         1 UNK         0.0769 
    128 H128       32.0811    3.5560   -7.8177 H         1 UNK         0.0769 
    129 H129       33.5392    3.3764   -8.7912 H         1 UNK         0.0769 
    130 H130       34.2232   -0.3843   -6.3465 H         1 UNK         0.2981 
    131 H131       36.9848   -0.0830   -7.1100 H         1 UNK         0.0541 
    132 H132       36.8307    1.4872   -3.4135 H         1 UNK         0.3459 
    133 H133       35.3828    1.2674   -4.3613 H         1 UNK         0.3459 
    134 H134       37.3229   -2.2742   -5.9543 H         1 UNK         0.0612 
    135 H135       36.1118   -2.3042   -7.1886 H         1 UNK         0.0612 
    136 H136       33.8786   -4.1393   -6.2844 H         1 UNK         0.0624 
    137 H137       33.8461   -2.5629   -7.0340 H         1 UNK         0.0624 
@<TRIPOS>BOND
     1    1    2 1    
     2    1   72 1    
     3    1   73 1    
     4    1   74 1    
     5    2    3 2    
     6    2    4 am   BACKBONE|DICT|INTERRES
     7    4    5 1    
     8    4   75 1    
     9    5    6 1    
    10    5   35 1    
    11    5   76 1    
    12    6    7 1    
    13    6   77 1    
    14    6   78 1    
    15    7    8 1    
    16    8    9 1    
    17    8   79 1    
    18    8   80 1    
    19    9   10 ar   
    20    9   14 ar   
    21   10   11 ar   
    22   10   81 1    
    23   11   12 ar   
    24   11   71 1    
    25   12   13 ar   
    26   12   82 1    
    27   13   14 ar   
    28   13   15 1    
    29   14   83 1    
    30   15   16 1    
    31   15   84 1    
    32   15   85 1    
    33   16   17 1    
    34   17   18 1    
    35   17   86 1    
    36   17   87 1    
    37   18   19 1    
    38   18   37 1    
    39   18   88 1    
    40   19   20 am   BACKBONE|DICT|INTERRES
    41   19   89 1    
    42   20   21 2    
    43   20   22 1    
    44   22   23 1    
    45   22   24 1    
    46   22   90 1    
    47   23   91 1    
    48   23   92 1    
    49   23   93 1    
    50   24   25 am   BACKBONE|DICT|INTERRES
    51   24   94 1    
    52   25   26 2    
    53   25   27 1    
    54   27   28 1    
    55   27   29 1    
    56   27   95 1    
    57   28   96 1    
    58   28   97 1    
    59   28   98 1    
    60   29   30 am   BACKBONE|DICT|INTERRES
    61   29   99 1    
    62   30   31 2    
    63   30   32 1    
    64   32   33 1    
    65   32   34 1    
    66   32  100 1    
    67   33  101 1    
    68   33  102 1    
    69   33  103 1    
    70   34   35 am   BACKBONE|DICT|INTERRES
    71   34  104 1    
    72   35   36 2    
    73   37   38 2    
    74   37   39 am   BACKBONE|DICT|INTERRES
    75   39   40 1    
    76   39  105 1    
    77   40   41 1    
    78   40   42 1    
    79   40  106 1    
    80   41  107 1    
    81   41  108 1    
    82   41  109 1    
    83   42   43 2    
    84   42   44 am   BACKBONE|DICT|INTERRES
    85   44   45 1    
    86   44  110 1    
    87   45   46 1    
    88   45   47 1    
    89   45  111 1    
    90   46  112 1    
    91   46  113 1    
    92   46  114 1    
    93   47   48 2    
    94   47   49 am   BACKBONE|DICT|INTERRES
    95   49   50 1    
    96   49  115 1    
    97   50   51 1    
    98   50   52 1    
    99   50  116 1    
   100   51  117 1    
   101   51  118 1    
   102   51  119 1    
   103   52   53 2    
   104   52   54 am   BACKBONE|DICT|INTERRES
   105   54   55 1    
   106   54  120 1    
   107   55   56 1    
   108   55   57 1    
   109   55  121 1    
   110   56  122 1    
   111   56  123 1    
   112   56  124 1    
   113   57   58 2    
   114   57   59 am   BACKBONE|DICT|INTERRES
   115   59   60 1    
   116   59  125 1    
   117   60   61 1    
   118   60   62 1    
   119   60  126 1    
   120   61  127 1    
   121   61  128 1    
   122   61  129 1    
   123   62   63 2    
   124   62   64 am   BACKBONE|DICT|INTERRES
   125   64   65 1    
   126   64  130 1    
   127   65   66 1    
   128   65   69 1    
   129   65  131 1    
   130   66   67 am   BACKBONE|DICT|INTERRES
   131   66   68 2    
   132   67  132 1    
   133   67  133 1    
   134   69   70 1    
   135   69  134 1    
   136   69  135 1    
   137   70   71 1    
   138   71  136 1    
   139   71  137 1    
@<TRIPOS>SUBSTRUCTURE
     1 UNK         1 GROUP             0       ****    0 ROOT    
