@<TRIPOS>MOLECULE
3R137
137   139    1
SMALL
USER_CHARGES


@<TRIPOS>ATOM
      1 CA         24.9850   -6.2684   -3.7859 C.3       0 UNK        -0.2020 
      2 C          25.8520   -5.1912   -3.1542 C.2       0 UNK         0.4855 
      3 O          26.0638   -4.1442   -3.7681 O.2       0 UNK        -0.5197 
      4 N          26.3302   -5.4253   -1.9227 N.am      1 UNK        -0.4892 
      5 CA         27.2355   -4.5871   -1.1131 C.3       1 UNK         0.0835 
      6 C6         28.6024   -4.3482   -1.8096 C.3       12 UNK        -0.0855 
      7 S7         29.9474   -4.0791   -0.6092 S.3       12 UNK        -0.2931 
      8 C8         31.3669   -3.8101   -1.7176 C.3       12 UNK         0.0378 
      9 C9         31.2383   -2.5377   -2.5468 C.ar      12 UNK        -0.0802 
     10 C10        31.3070   -2.5998   -3.9411 C.ar      12 UNK        -0.0944 
     11 C11        31.2455   -1.4322   -4.7136 C.ar      12 UNK        -0.0787 
     12 C12        31.0982   -0.2009   -4.0676 C.ar      12 UNK        -0.0862 
     13 C13        30.9832   -0.1238   -2.6751 C.ar      12 UNK        -0.0733 
     14 C14        31.0746   -1.2978   -1.9222 C.ar      12 UNK        -0.0832 
     15 C15        30.7733    1.2091   -1.9553 C.3       12 UNK         0.0240 
     16 S16        29.6966    2.4046   -2.8274 S.3       12 UNK        -0.2522 
     17 C17        28.1913    1.4297   -3.1710 C.3       12 UNK        -0.0967 
     18 CA         27.9367    1.3142   -4.6992 C.3       5 UNK         0.0660 
     19 N          27.4415   -0.0057   -5.0856 N.am      5 UNK        -0.4015 
     20 C          27.4777   -0.4978   -6.3316 C.2       4 UNK         0.4946 
     21 O          27.9937    0.0855   -7.2871 O.2       4 UNK        -0.5353 
     22 CA         26.8053   -1.8640   -6.5515 C.3       4 UNK         0.0277 
     23 CB         27.8115   -3.0030   -6.3224 C.3       4 UNK        -0.1981 
     24 N          25.6359   -2.0684   -5.6904 N.am      4 UNK        -0.4209 
     25 C          24.5050   -1.3516   -5.7751 C.2       3 UNK         0.4942 
     26 O          24.3183   -0.4700   -6.6109 O.2       3 UNK        -0.5208 
     27 CA         23.4196   -1.6173   -4.7204 C.3       3 UNK         0.0250 
     28 CB         22.5913   -2.8548   -5.1004 C.3       3 UNK        -0.1990 
     29 N          23.9493   -1.7789   -3.3645 N.am      3 UNK        -0.4232 
     30 C          24.6795   -0.8730   -2.6952 C.2       2 UNK         0.4993 
     31 O          25.0055    0.2240   -3.1476 O.2       2 UNK        -0.5286 
     32 CA         25.1949   -1.3090   -1.3225 C.3       2 UNK         0.0209 
     33 CB         24.0537   -1.3640   -0.2879 C.3       2 UNK        -0.1931 
     34 N          25.8443   -2.6056   -1.4848 N.am      2 UNK        -0.4546 
     35 C          26.6087   -3.2625   -0.6125 C.2       1 UNK         0.5154 
     36 O          26.8199   -2.8760    0.5378 O.2       1 UNK        -0.5181 
     37 C          27.0043    2.4219   -5.2244 C.2       5 UNK         0.5014 
     38 O          27.4856    3.3825   -5.8251 O.2       5 UNK        -0.5248 
     39 N          25.6872    2.2421   -5.0398 N.am      6 UNK        -0.4434 
     40 CA         24.6354    3.1298   -5.5468 C.3       6 UNK         0.0363 
     41 CB         23.2722    2.6693   -5.0072 C.3       6 UNK        -0.1936 
     42 C          24.6093    3.2250   -7.0834 C.2       6 UNK         0.5081 
     43 O          24.4153    4.3160   -7.6198 O.2       6 UNK        -0.5248 
     44 N          24.8412    2.0932   -7.7624 N.am      7 UNK        -0.4718 
     45 CA         24.9922    1.9993   -9.2179 C.3       7 UNK         0.0273 
     46 CB         24.8358    0.5291   -9.6406 C.3       7 UNK        -0.1935 
     47 C          26.3286    2.5589   -9.7427 C.2       7 UNK         0.5018 
     48 O          26.4534    2.7464  -10.9536 O.2       7 UNK        -0.5186 
     49 N          27.2939    2.7977   -8.8410 N.am      8 UNK        -0.4240 
     50 CA         28.6626    3.2590   -9.0906 C.3       8 UNK         0.0235 
     51 CB         28.6672    4.7064   -9.6271 C.3       8 UNK        -0.2000 
     52 C          29.4570    2.2788   -9.9736 C.2       8 UNK         0.4941 
     53 O          30.0837    2.6920  -10.9510 O.2       8 UNK        -0.5273 
     54 N          29.4220    0.9889   -9.6076 N.am      9 UNK        -0.4262 
     55 CA         30.0816   -0.1046  -10.3319 C.3       9 UNK         0.0264 
     56 CB         29.4561   -1.4400   -9.8956 C.3       9 UNK        -0.1955 
     57 C          31.6171   -0.1415  -10.1814 C.2       9 UNK         0.5031 
     58 O          32.2581   -0.9604  -10.8430 O.2       9 UNK        -0.5390 
     59 N          32.1809    0.7155   -9.3153 N.am      10 UNK        -0.4204 
     60 CA         33.6027    0.9116   -8.9854 C.3       10 UNK         0.0237 
     61 CB         34.4327    1.2992  -10.2253 C.3       10 UNK        -0.1985 
     62 C          34.2449   -0.2612   -8.2243 C.2       10 UNK         0.4970 
     63 O          34.8939   -0.0242   -7.2055 O.2       10 UNK        -0.4914 
     64 N          34.0210   -1.4899   -8.7037 N.am      11 UNK        -0.4285 
     65 CA         34.3881   -2.7668   -8.0666 C.3       11 UNK         0.1007 
     66 C          35.9206   -3.0141   -7.9123 C.2       11 UNK         0.5703 
     67 N          36.7769   -2.3227   -8.6554 N.am      11 UNK        -0.7361 
     68 O          36.3444   -3.8686   -7.1371 O.2       11 UNK        -0.4986 
     69 C69        33.5910   -3.0248   -6.7536 C.3       12 UNK        -0.0947 
     70 S70        31.7860   -3.0137   -7.0286 S.3       12 UNK        -0.2240 
     71 C71        31.3027   -1.4377   -6.2418 C.3       12 UNK         0.0194 
     72 H72        25.3723   -6.5282   -4.7706 H         1 UNK         0.0906 
     73 H73        24.9570   -7.1759   -3.1832 H         1 UNK         0.0906 
     74 H74        23.9644   -5.9069   -3.9057 H         1 UNK         0.0906 
     75 H75        26.0660   -6.2916   -1.4725 H         1 UNK         0.3140 
     76 H76        27.4187   -5.1834   -0.2172 H         1 UNK         0.1085 
     77 H77        28.5513   -3.5118   -2.5101 H         1 UNK         0.0836 
     78 H78        28.8757   -5.2199   -2.4064 H         1 UNK         0.0836 
     79 H79        31.4865   -4.6858   -2.3577 H         1 UNK         0.0731 
     80 H80        32.2743   -3.7450   -1.1159 H         1 UNK         0.0731 
     81 H81        31.4178   -3.5644   -4.4145 H         1 UNK         0.1312 
     82 H82        31.0553    0.7037   -4.6574 H         1 UNK         0.1406 
     83 H83        31.0119   -1.2529   -0.8430 H         1 UNK         0.1631 
     84 H84        31.7469    1.6729   -1.7930 H         1 UNK         0.0717 
     85 H85        30.3458    1.0376   -0.9661 H         1 UNK         0.0717 
     86 H86        28.3081    0.4408   -2.7253 H         1 UNK         0.0934 
     87 H87        27.3459    1.8774   -2.6442 H         1 UNK         0.0934 
     88 H88        28.8876    1.4390   -5.2212 H         1 UNK         0.0739 
     89 H89        26.9505   -0.5295   -4.3767 H         1 UNK         0.3093 
     90 H90        26.4695   -1.9054   -7.5896 H         1 UNK         0.0818 
     91 H91        28.6469   -2.9331   -7.0186 H         1 UNK         0.0819 
     92 H92        27.3487   -3.9782   -6.4743 H         1 UNK         0.0819 
     93 H93        28.2241   -2.9842   -5.3125 H         1 UNK         0.0819 
     94 H94        25.7119   -2.7983   -4.9840 H         1 UNK         0.3041 
     95 H95        22.7544   -0.7517   -4.7081 H         1 UNK         0.0784 
     96 H96        22.1640   -2.7455   -6.0983 H         1 UNK         0.0793 
     97 H97        23.1970   -3.7618   -5.1033 H         1 UNK         0.0793 
     98 H98        21.7614   -3.0057   -4.4098 H         1 UNK         0.0793 
     99 H99        23.7304   -2.6491   -2.9022 H         1 UNK         0.3024 
    100 H100       25.9419   -0.5832   -0.9936 H         1 UNK         0.1171 
    101 H101       24.4320   -1.5716    0.7129 H         1 UNK         0.0786 
    102 H102       23.5272   -0.4099   -0.2384 H         1 UNK         0.0786 
    103 H103       23.3188   -2.1320   -0.5310 H         1 UNK         0.0786 
    104 H104       25.7975   -3.0184   -2.4157 H         1 UNK         0.2977 
    105 H105       25.3812    1.4418   -4.4885 H         1 UNK         0.3127 
    106 H106       24.8363    4.1302   -5.1580 H         1 UNK         0.0770 
    107 H107       23.0170    1.6691   -5.3584 H         1 UNK         0.0814 
    108 H108       22.4770    3.3418   -5.3315 H         1 UNK         0.0814 
    109 H109       23.2609    2.6537   -3.9171 H         1 UNK         0.0814 
    110 H110       24.8924    1.2174   -7.2459 H         1 UNK         0.2983 
    111 H111       24.1923    2.5789   -9.6837 H         1 UNK         0.0947 
    112 H112       24.9016    0.4218  -10.7242 H         1 UNK         0.0806 
    113 H113       23.8695    0.1282   -9.3341 H         1 UNK         0.0806 
    114 H114       25.6133   -0.0979   -9.2023 H         1 UNK         0.0806 
    115 H115       27.0771    2.6126   -7.8692 H         1 UNK         0.3000 
    116 H116       29.1610    3.2681   -8.1200 H         1 UNK         0.0850 
    117 H117       29.6851    5.0900   -9.7054 H         1 UNK         0.0810 
    118 H118       28.1192    5.3751   -8.9631 H         1 UNK         0.0810 
    119 H119       28.2177    4.7748  -10.6182 H         1 UNK         0.0810 
    120 H120       28.8761    0.7244   -8.7870 H         1 UNK         0.3040 
    121 H121       29.8752    0.0280  -11.3960 H         1 UNK         0.0766 
    122 H122       28.3782   -1.4464  -10.0589 H         1 UNK         0.0812 
    123 H123       29.6344   -1.6399   -8.8403 H         1 UNK         0.0812 
    124 H124       29.8745   -2.2746  -10.4596 H         1 UNK         0.0812 
    125 H125       31.5431    1.3164   -8.8138 H         1 UNK         0.3205 
    126 H126       33.6240    1.7662   -8.3069 H         1 UNK         0.0754 
    127 H127       35.4574    1.5462   -9.9445 H         1 UNK         0.0769 
    128 H128       34.0136    2.1737  -10.7231 H         1 UNK         0.0769 
    129 H129       34.4842    0.4916  -10.9559 H         1 UNK         0.0769 
    130 H130       33.4688   -1.5570   -9.5554 H         1 UNK         0.2981 
    131 H131       34.0743   -3.5312   -8.7780 H         1 UNK         0.0541 
    132 H132       37.7653   -2.4948   -8.5604 H         1 UNK         0.3459 
    133 H133       36.4430   -1.6270   -9.3026 H         1 UNK         0.3459 
    134 H134       33.8400   -4.0032   -6.3396 H         1 UNK         0.0612 
    135 H135       33.8572   -2.2964   -5.9861 H         1 UNK         0.0612 
    136 H136       31.9779   -0.6525   -6.5783 H         1 UNK         0.0624 
    137 H137       30.3178   -1.1647   -6.6148 H         1 UNK         0.0624 
@<TRIPOS>BOND
     1    1    2 1    
     2    1   72 1    
     3    1   73 1    
     4    1   74 1    
     5    2    3 2    
     6    2    4 am   BACKBONE|DICT|INTERRES
     7    4    5 1    
     8    4   75 1    
     9    5    6 1    
    10    5   35 1    
    11    5   76 1    
    12    6    7 1    
    13    6   77 1    
    14    6   78 1    
    15    7    8 1    
    16    8    9 1    
    17    8   79 1    
    18    8   80 1    
    19    9   10 ar   
    20    9   14 ar   
    21   10   11 ar   
    22   10   81 1    
    23   11   12 ar   
    24   11   71 1    
    25   12   13 ar   
    26   12   82 1    
    27   13   14 ar   
    28   13   15 1    
    29   14   83 1    
    30   15   16 1    
    31   15   84 1    
    32   15   85 1    
    33   16   17 1    
    34   17   18 1    
    35   17   86 1    
    36   17   87 1    
    37   18   19 1    
    38   18   37 1    
    39   18   88 1    
    40   19   20 am   BACKBONE|DICT|INTERRES
    41   19   89 1    
    42   20   21 2    
    43   20   22 1    
    44   22   23 1    
    45   22   24 1    
    46   22   90 1    
    47   23   91 1    
    48   23   92 1    
    49   23   93 1    
    50   24   25 am   BACKBONE|DICT|INTERRES
    51   24   94 1    
    52   25   26 2    
    53   25   27 1    
    54   27   28 1    
    55   27   29 1    
    56   27   95 1    
    57   28   96 1    
    58   28   97 1    
    59   28   98 1    
    60   29   30 am   BACKBONE|DICT|INTERRES
    61   29   99 1    
    62   30   31 2    
    63   30   32 1    
    64   32   33 1    
    65   32   34 1    
    66   32  100 1    
    67   33  101 1    
    68   33  102 1    
    69   33  103 1    
    70   34   35 am   BACKBONE|DICT|INTERRES
    71   34  104 1    
    72   35   36 2    
    73   37   38 2    
    74   37   39 am   BACKBONE|DICT|INTERRES
    75   39   40 1    
    76   39  105 1    
    77   40   41 1    
    78   40   42 1    
    79   40  106 1    
    80   41  107 1    
    81   41  108 1    
    82   41  109 1    
    83   42   43 2    
    84   42   44 am   BACKBONE|DICT|INTERRES
    85   44   45 1    
    86   44  110 1    
    87   45   46 1    
    88   45   47 1    
    89   45  111 1    
    90   46  112 1    
    91   46  113 1    
    92   46  114 1    
    93   47   48 2    
    94   47   49 am   BACKBONE|DICT|INTERRES
    95   49   50 1    
    96   49  115 1    
    97   50   51 1    
    98   50   52 1    
    99   50  116 1    
   100   51  117 1    
   101   51  118 1    
   102   51  119 1    
   103   52   53 2    
   104   52   54 am   BACKBONE|DICT|INTERRES
   105   54   55 1    
   106   54  120 1    
   107   55   56 1    
   108   55   57 1    
   109   55  121 1    
   110   56  122 1    
   111   56  123 1    
   112   56  124 1    
   113   57   58 2    
   114   57   59 am   BACKBONE|DICT|INTERRES
   115   59   60 1    
   116   59  125 1    
   117   60   61 1    
   118   60   62 1    
   119   60  126 1    
   120   61  127 1    
   121   61  128 1    
   122   61  129 1    
   123   62   63 2    
   124   62   64 am   BACKBONE|DICT|INTERRES
   125   64   65 1    
   126   64  130 1    
   127   65   66 1    
   128   65   69 1    
   129   65  131 1    
   130   66   67 am   BACKBONE|DICT|INTERRES
   131   66   68 2    
   132   67  132 1    
   133   67  133 1    
   134   69   70 1    
   135   69  134 1    
   136   69  135 1    
   137   70   71 1    
   138   71  136 1    
   139   71  137 1    
@<TRIPOS>SUBSTRUCTURE
     1 UNK         1 GROUP             0       ****    0 ROOT    
