@<TRIPOS>MOLECULE
3R137
137   139    1
SMALL
USER_CHARGES


@<TRIPOS>ATOM
      1 CA         24.9610   -5.0361   -6.6784 C.3       0 UNK        -0.2020 
      2 C          25.1136   -4.7268   -5.1973 C.2       0 UNK         0.4855 
      3 O          24.2310   -4.1018   -4.6091 O.2       0 UNK        -0.5197 
      4 N          26.2353   -5.1556   -4.6027 N.am      1 UNK        -0.4892 
      5 CA         26.6410   -4.9515   -3.2052 C.3       1 UNK         0.0835 
      6 C6         28.0203   -5.6190   -2.9679 C.3       12 UNK        -0.0855 
      7 S7         28.5571   -5.6209   -1.2245 S.3       12 UNK        -0.2931 
      8 C8         30.3532   -5.3397   -1.4001 C.3       12 UNK         0.0378 
      9 C9         30.7012   -3.9540   -1.9358 C.ar      12 UNK        -0.0802 
     10 C10        31.4852   -3.8155   -3.0885 C.ar      12 UNK        -0.0944 
     11 C11        31.8376   -2.5478   -3.5657 C.ar      12 UNK        -0.0787 
     12 C12        31.3837   -1.4182   -2.8773 C.ar      12 UNK        -0.0862 
     13 C13        30.6063   -1.5354   -1.7231 C.ar      12 UNK        -0.0733 
     14 C14        30.2700   -2.8092   -1.2575 C.ar      12 UNK        -0.0832 
     15 C15        30.1712   -0.2947   -0.9514 C.3       12 UNK         0.0240 
     16 S16        28.8714    0.6599   -1.8024 S.3       12 UNK        -0.2522 
     17 C17        29.8433    1.7054   -2.9477 C.3       12 UNK        -0.0967 
     18 CA         29.4826    1.5733   -4.4575 C.3       5 UNK         0.0660 
     19 N          29.0183    0.2477   -4.8612 N.am      5 UNK        -0.4015 
     20 C          29.2928   -0.3616   -6.0235 C.2       4 UNK         0.4946 
     21 O          30.1405    0.0106   -6.8410 O.2       4 UNK        -0.5353 
     22 CA         28.4228   -1.5745   -6.3805 C.3       4 UNK         0.0277 
     23 CB         29.0745   -2.8897   -5.9425 C.3       4 UNK        -0.1981 
     24 N          27.0637   -1.4717   -5.8459 N.am      4 UNK        -0.4209 
     25 C          26.1711   -0.5538   -6.2487 C.2       3 UNK         0.4942 
     26 O          26.4172    0.2829   -7.1186 O.2       3 UNK        -0.5208 
     27 CA         24.7918   -0.5328   -5.5668 C.3       3 UNK         0.0250 
     28 CB         23.7290   -1.1648   -6.4780 C.3       3 UNK        -0.1990 
     29 N          24.7822   -1.1955   -4.2594 N.am      3 UNK        -0.4232 
     30 C          25.3317   -0.6672   -3.1554 C.2       2 UNK         0.4993 
     31 O          25.8508    0.4467   -3.1284 O.2       2 UNK        -0.5286 
     32 CA         25.3747   -1.5458   -1.8907 C.3       2 UNK         0.0209 
     33 CB         24.0930   -1.3654   -1.0628 C.3       2 UNK        -0.1931 
     34 N          25.5844   -2.9709   -2.1740 N.am      2 UNK        -0.4546 
     35 C          26.6423   -3.4502   -2.8432 C.2       1 UNK         0.5154 
     36 O          27.5542   -2.7328   -3.2469 O.2       1 UNK        -0.5181 
     37 C          28.4789    2.6561   -4.8978 C.2       5 UNK         0.5014 
     38 O          28.8665    3.5426   -5.6585 O.2       5 UNK        -0.5248 
     39 N          27.2285    2.6004   -4.4084 N.am      6 UNK        -0.4434 
     40 CA         26.2654    3.7110   -4.4848 C.3       6 UNK         0.0363 
     41 CB         25.0295    3.4046   -3.6246 C.3       6 UNK        -0.1936 
     42 C          25.8343    4.1185   -5.9031 C.2       6 UNK         0.5081 
     43 O          25.6212    5.3078   -6.1411 O.2       6 UNK        -0.5248 
     44 N          25.7255    3.1467   -6.8164 N.am      7 UNK        -0.4718 
     45 CA         25.4474    3.3744   -8.2384 C.3       7 UNK         0.0273 
     46 CB         24.3230    2.4230   -8.6871 C.3       7 UNK        -0.1935 
     47 C          26.7125    3.1829   -9.0949 C.2       7 UNK         0.5018 
     48 O          26.6152    3.2270  -10.3219 O.2       7 UNK        -0.5186 
     49 N          27.8638    2.9543   -8.4408 N.am      8 UNK        -0.4240 
     50 CA         29.1775    2.6341   -9.0065 C.3       8 UNK         0.0235 
     51 CB         29.7776    3.8650   -9.7170 C.3       8 UNK        -0.2000 
     52 C          29.1695    1.3728   -9.8929 C.2       8 UNK         0.4941 
     53 O          29.9193    1.3096  -10.8688 O.2       8 UNK        -0.5273 
     54 N          28.3194    0.3902   -9.5529 N.am      9 UNK        -0.4262 
     55 CA         28.0811   -0.8037  -10.3692 C.3       9 UNK         0.0264 
     56 CB         26.7484   -1.4617   -9.9655 C.3       9 UNK        -0.1955 
     57 C          29.2388   -1.8222  -10.3941 C.2       9 UNK         0.5031 
     58 O          29.1886   -2.7294  -11.2266 O.2       9 UNK        -0.5390 
     59 N          30.2572   -1.6713   -9.5308 N.am      10 UNK        -0.4204 
     60 CA         31.4840   -2.4752   -9.5983 C.3       10 UNK         0.0237 
     61 CB         31.3226   -3.8325   -8.8871 C.3       10 UNK        -0.1985 
     62 C          32.7361   -1.7438   -9.0974 C.2       10 UNK         0.4970 
     63 O          33.8077   -2.0178   -9.6405 O.2       10 UNK        -0.4914 
     64 N          32.6236   -0.8577   -8.0949 N.am      11 UNK        -0.4285 
     65 CA         33.7898   -0.1536   -7.5287 C.3       11 UNK         0.1007 
     66 C          33.5337    1.3165   -7.0942 C.2       11 UNK         0.5703 
     67 N          32.2962    1.7811   -6.9926 N.am      11 UNK        -0.7361 
     68 O          34.4845    2.0639   -6.8790 O.2       11 UNK        -0.4986 
     69 C69        34.5463   -1.0138   -6.4720 C.3       12 UNK        -0.0947 
     70 S70        33.8390   -1.0021   -4.7889 S.3       12 UNK        -0.2240 
     71 C71        32.6768   -2.4094   -4.8381 C.3       12 UNK         0.0194 
     72 H72        23.9199   -5.2507   -6.9147 H         1 UNK         0.0906 
     73 H73        25.2783   -4.1833   -7.2768 H         1 UNK         0.0906 
     74 H74        25.5556   -5.8997   -6.9723 H         1 UNK         0.0906 
     75 H75        26.9072   -5.6571   -5.1653 H         1 UNK         0.3140 
     76 H76        25.9061   -5.4560   -2.5750 H         1 UNK         0.1085 
     77 H77        28.7809   -5.1399   -3.5872 H         1 UNK         0.0836 
     78 H78        27.9872   -6.6603   -3.2922 H         1 UNK         0.0836 
     79 H79        30.7704   -6.1196   -2.0384 H         1 UNK         0.0731 
     80 H80        30.8224   -5.4625   -0.4236 H         1 UNK         0.0731 
     81 H81        31.8242   -4.6968   -3.6153 H         1 UNK         0.1312 
     82 H82        31.6473   -0.4411   -3.2448 H         1 UNK         0.1406 
     83 H83        29.6710   -2.9153   -0.3636 H         1 UNK         0.1631 
     84 H84        31.0351    0.3415   -0.7552 H         1 UNK         0.0717 
     85 H85        29.7875   -0.5817    0.0285 H         1 UNK         0.0717 
     86 H86        29.7461    2.7392   -2.6088 H         1 UNK         0.0934 
     87 H87        30.9034    1.4999   -2.8130 H         1 UNK         0.0934 
     88 H88        30.4028    1.7838   -5.0043 H         1 UNK         0.0739 
     89 H89        28.3413   -0.1822   -4.2443 H         1 UNK         0.3093 
     90 H90        28.3449   -1.6021   -7.4638 H         1 UNK         0.0818 
     91 H91        29.9795   -3.0692   -6.5116 H         1 UNK         0.0819 
     92 H92        29.3644   -2.8752   -4.8938 H         1 UNK         0.0819 
     93 H93        28.4165   -3.7426   -6.1052 H         1 UNK         0.0819 
     94 H94        26.8504   -2.0613   -5.0492 H         1 UNK         0.3041 
     95 H95        24.5221    0.5150   -5.4211 H         1 UNK         0.0784 
     96 H96        23.6940   -0.6617   -7.4452 H         1 UNK         0.0793 
     97 H97        23.9298   -2.2184   -6.6678 H         1 UNK         0.0793 
     98 H98        22.7347   -1.0880   -6.0381 H         1 UNK         0.0793 
     99 H99        24.4186   -2.1443   -4.2239 H         1 UNK         0.3024 
    100 H100       26.2234   -1.2021   -1.2945 H         1 UNK         0.1171 
    101 H101       24.1530   -1.9025   -0.1161 H         1 UNK         0.0786 
    102 H102       23.9275   -0.3132   -0.8265 H         1 UNK         0.0786 
    103 H103       23.2124   -1.7224   -1.5982 H         1 UNK         0.0786 
    104 H104       24.8362   -3.6022   -1.9253 H         1 UNK         0.2977 
    105 H105       26.9491    1.8141   -3.8230 H         1 UNK         0.3127 
    106 H106       26.7598    4.5803   -4.0458 H         1 UNK         0.0770 
    107 H107       24.4643    2.5586   -4.0160 H         1 UNK         0.0814 
    108 H108       24.3530    4.2598   -3.5958 H         1 UNK         0.0814 
    109 H109       25.3066    3.1768   -2.5952 H         1 UNK         0.0814 
    110 H110       25.9435    2.1894   -6.5606 H         1 UNK         0.2983 
    111 H111       25.1057    4.3983   -8.4042 H         1 UNK         0.0947 
    112 H112       24.0162    2.6387   -9.7113 H         1 UNK         0.0806 
    113 H113       23.4393    2.5265   -8.0574 H         1 UNK         0.0806 
    114 H114       24.6358    1.3796   -8.6587 H         1 UNK         0.0806 
    115 H115       27.8389    3.0025   -7.4288 H         1 UNK         0.3000 
    116 H116       29.8184    2.4016   -8.1565 H         1 UNK         0.0850 
    117 H117       30.8082    3.6778  -10.0210 H         1 UNK         0.0810 
    118 H118       29.7891    4.7343   -9.0595 H         1 UNK         0.0810 
    119 H119       29.2152    4.1280  -10.6135 H         1 UNK         0.0810 
    120 H120       27.7275    0.5123   -8.7368 H         1 UNK         0.3040 
    121 H121       27.9620   -0.4606  -11.3993 H         1 UNK         0.0766 
    122 H122       25.9312   -0.7399   -9.9730 H         1 UNK         0.0812 
    123 H123       26.7834   -1.9137   -8.9767 H         1 UNK         0.0812 
    124 H124       26.4824   -2.2538  -10.6664 H         1 UNK         0.0812 
    125 H125       30.2413   -0.8844   -8.8953 H         1 UNK         0.3205 
    126 H126       31.6739   -2.6829  -10.6540 H         1 UNK         0.0754 
    127 H127       32.0251   -4.5580   -9.2997 H         1 UNK         0.0769 
    128 H128       30.3223   -4.2487   -9.0083 H         1 UNK         0.0769 
    129 H129       31.5423   -3.7669   -7.8230 H         1 UNK         0.0769 
    130 H130       31.7323   -0.6634   -7.6522 H         1 UNK         0.2981 
    131 H131       34.4934   -0.0166   -8.3526 H         1 UNK         0.0541 
    132 H132       31.4941    1.1634   -7.0615 H         1 UNK         0.3459 
    133 H133       32.1668    2.7449   -6.7325 H         1 UNK         0.3459 
    134 H134       34.6456   -2.0453   -6.8121 H         1 UNK         0.0612 
    135 H135       35.5685   -0.6438   -6.3823 H         1 UNK         0.0612 
    136 H136       33.2448   -3.3238   -5.0210 H         1 UNK         0.0624 
    137 H137       32.0053   -2.2768   -5.6860 H         1 UNK         0.0624 
@<TRIPOS>BOND
     1    1    2 1    
     2    1   72 1    
     3    1   73 1    
     4    1   74 1    
     5    2    3 2    
     6    2    4 am   BACKBONE|DICT|INTERRES
     7    4    5 1    
     8    4   75 1    
     9    5    6 1    
    10    5   35 1    
    11    5   76 1    
    12    6    7 1    
    13    6   77 1    
    14    6   78 1    
    15    7    8 1    
    16    8    9 1    
    17    8   79 1    
    18    8   80 1    
    19    9   10 ar   
    20    9   14 ar   
    21   10   11 ar   
    22   10   81 1    
    23   11   12 ar   
    24   11   71 1    
    25   12   13 ar   
    26   12   82 1    
    27   13   14 ar   
    28   13   15 1    
    29   14   83 1    
    30   15   16 1    
    31   15   84 1    
    32   15   85 1    
    33   16   17 1    
    34   17   18 1    
    35   17   86 1    
    36   17   87 1    
    37   18   19 1    
    38   18   37 1    
    39   18   88 1    
    40   19   20 am   BACKBONE|DICT|INTERRES
    41   19   89 1    
    42   20   21 2    
    43   20   22 1    
    44   22   23 1    
    45   22   24 1    
    46   22   90 1    
    47   23   91 1    
    48   23   92 1    
    49   23   93 1    
    50   24   25 am   BACKBONE|DICT|INTERRES
    51   24   94 1    
    52   25   26 2    
    53   25   27 1    
    54   27   28 1    
    55   27   29 1    
    56   27   95 1    
    57   28   96 1    
    58   28   97 1    
    59   28   98 1    
    60   29   30 am   BACKBONE|DICT|INTERRES
    61   29   99 1    
    62   30   31 2    
    63   30   32 1    
    64   32   33 1    
    65   32   34 1    
    66   32  100 1    
    67   33  101 1    
    68   33  102 1    
    69   33  103 1    
    70   34   35 am   BACKBONE|DICT|INTERRES
    71   34  104 1    
    72   35   36 2    
    73   37   38 2    
    74   37   39 am   BACKBONE|DICT|INTERRES
    75   39   40 1    
    76   39  105 1    
    77   40   41 1    
    78   40   42 1    
    79   40  106 1    
    80   41  107 1    
    81   41  108 1    
    82   41  109 1    
    83   42   43 2    
    84   42   44 am   BACKBONE|DICT|INTERRES
    85   44   45 1    
    86   44  110 1    
    87   45   46 1    
    88   45   47 1    
    89   45  111 1    
    90   46  112 1    
    91   46  113 1    
    92   46  114 1    
    93   47   48 2    
    94   47   49 am   BACKBONE|DICT|INTERRES
    95   49   50 1    
    96   49  115 1    
    97   50   51 1    
    98   50   52 1    
    99   50  116 1    
   100   51  117 1    
   101   51  118 1    
   102   51  119 1    
   103   52   53 2    
   104   52   54 am   BACKBONE|DICT|INTERRES
   105   54   55 1    
   106   54  120 1    
   107   55   56 1    
   108   55   57 1    
   109   55  121 1    
   110   56  122 1    
   111   56  123 1    
   112   56  124 1    
   113   57   58 2    
   114   57   59 am   BACKBONE|DICT|INTERRES
   115   59   60 1    
   116   59  125 1    
   117   60   61 1    
   118   60   62 1    
   119   60  126 1    
   120   61  127 1    
   121   61  128 1    
   122   61  129 1    
   123   62   63 2    
   124   62   64 am   BACKBONE|DICT|INTERRES
   125   64   65 1    
   126   64  130 1    
   127   65   66 1    
   128   65   69 1    
   129   65  131 1    
   130   66   67 am   BACKBONE|DICT|INTERRES
   131   66   68 2    
   132   67  132 1    
   133   67  133 1    
   134   69   70 1    
   135   69  134 1    
   136   69  135 1    
   137   70   71 1    
   138   71  136 1    
   139   71  137 1    
@<TRIPOS>SUBSTRUCTURE
     1 UNK         1 GROUP             0       ****    0 ROOT    
