@<TRIPOS>MOLECULE
3R137
137   139    1
SMALL
USER_CHARGES


@<TRIPOS>ATOM
      1 CA         29.2349   -0.5218   -1.0668 C.3       0 UNK        -0.2020 
      2 C          29.5086   -1.2768    0.2336 C.2       0 UNK         0.4855 
      3 O          30.1511   -0.7226    1.1231 O.2       0 UNK        -0.5197 
      4 N          29.0649   -2.5319    0.3992 N.am      1 UNK        -0.4892 
      5 CA         28.2415   -3.3185   -0.5277 C.3       1 UNK         0.0835 
      6 C6         28.1900   -4.8164   -0.1250 C.3       12 UNK        -0.0855 
      7 S7         29.7374   -5.8056   -0.1676 S.3       12 UNK        -0.2931 
      8 C8         31.0765   -4.7754   -0.8772 C.3       12 UNK         0.0378 
      9 C9         30.8460   -4.2800   -2.3047 C.ar      12 UNK        -0.0802 
     10 C10        31.3940   -3.0538   -2.6868 C.ar      12 UNK        -0.0944 
     11 C11        31.1828   -2.5350   -3.9668 C.ar      12 UNK        -0.0787 
     12 C12        30.3958   -3.2605   -4.8731 C.ar      12 UNK        -0.0862 
     13 C13        29.8524   -4.5043   -4.5168 C.ar      12 UNK        -0.0733 
     14 C14        30.0963   -5.0076   -3.2351 C.ar      12 UNK        -0.0832 
     15 C15        29.0321   -5.3689   -5.4788 C.3       12 UNK         0.0240 
     16 S16        28.3285   -4.5224   -6.9342 S.3       12 UNK        -0.2522 
     17 C17        27.0056   -3.5178   -6.1800 C.3       12 UNK        -0.0967 
     18 CA         26.6418   -2.2980   -7.0621 C.3       5 UNK         0.0660 
     19 N          25.3330   -1.7323   -6.7240 N.am      5 UNK        -0.4015 
     20 C          24.6710   -0.8462   -7.4839 C.2       4 UNK         0.4946 
     21 O          25.0727   -0.4392   -8.5731 O.2       4 UNK        -0.5353 
     22 CA         23.3577   -0.2847   -6.9158 C.3       4 UNK         0.0277 
     23 CB         22.1991   -1.2676   -7.1482 C.3       4 UNK        -0.1981 
     24 N          23.4544    0.0404   -5.4916 N.am      4 UNK        -0.4209 
     25 C          24.2519    0.9922   -4.9848 C.2       3 UNK         0.4942 
     26 O          24.9491    1.7393   -5.6696 O.2       3 UNK        -0.5208 
     27 CA         24.3197    1.0929   -3.4514 C.3       3 UNK         0.0250 
     28 CB         23.2092    2.0136   -2.9211 C.3       3 UNK        -0.1990 
     29 N          24.2492   -0.2077   -2.7746 N.am      3 UNK        -0.4232 
     30 C          25.1303   -1.2024   -2.9455 C.2       2 UNK         0.4993 
     31 O          26.0852   -1.1523   -3.7267 O.2       2 UNK        -0.5286 
     32 CA         24.8718   -2.4963   -2.1643 C.3       2 UNK         0.0209 
     33 CB         24.1097   -3.5034   -3.0414 C.3       2 UNK        -0.1931 
     34 N          26.1500   -3.0814   -1.7659 N.am      2 UNK        -0.4546 
     35 C          26.8140   -2.7468   -0.6535 C.2       1 UNK         0.5154 
     36 O          26.3445   -2.0312    0.2355 O.2       1 UNK        -0.5181 
     37 C          27.7345   -1.2155   -7.0244 C.2       5 UNK         0.5014 
     38 O          28.5105   -1.1079   -7.9741 O.2       5 UNK        -0.5248 
     39 N          27.7380   -0.4064   -5.9547 N.am      6 UNK        -0.4434 
     40 CA         28.6415    0.7293   -5.7693 C.3       6 UNK         0.0363 
     41 CB         28.3750    1.3734   -4.4011 C.3       6 UNK        -0.1936 
     42 C          28.5515    1.7705   -6.8969 C.2       6 UNK         0.5081 
     43 O          29.5871    2.2840   -7.3202 O.2       6 UNK        -0.5248 
     44 N          27.3319    2.0368   -7.3825 N.am      7 UNK        -0.4718 
     45 CA         27.0753    2.8788   -8.5490 C.3       7 UNK         0.0273 
     46 CB         25.5840    3.2481   -8.6046 C.3       7 UNK        -0.1935 
     47 C          27.5285    2.2173   -9.8611 C.2       7 UNK         0.5018 
     48 O          28.2488    2.8523  -10.6313 O.2       7 UNK        -0.5186 
     49 N          27.1054    0.9652  -10.0951 N.am      8 UNK        -0.4240 
     50 CA         27.3654    0.2140  -11.3285 C.3       8 UNK         0.0235 
     51 CB         26.5443   -1.0855  -11.3341 C.3       8 UNK        -0.2000 
     52 C          28.8513   -0.0909  -11.5716 C.2       8 UNK         0.4941 
     53 O          29.3297    0.1010  -12.6903 O.2       8 UNK        -0.5273 
     54 N          29.5550   -0.5510  -10.5291 N.am      9 UNK        -0.4262 
     55 CA         30.9876   -0.8571  -10.5759 C.3       9 UNK         0.0264 
     56 CB         31.2937   -1.9693   -9.5598 C.3       9 UNK        -0.1955 
     57 C          31.8755    0.3774  -10.3313 C.2       9 UNK         0.5031 
     58 O          33.0915    0.2755  -10.4973 O.2       9 UNK        -0.5390 
     59 N          31.2670    1.5054   -9.9322 N.am      10 UNK        -0.4204 
     60 CA         31.8781    2.8035   -9.6136 C.3       10 UNK         0.0237 
     61 CB         32.5739    3.4094  -10.8513 C.3       10 UNK        -0.1985 
     62 C          32.7900    2.7942   -8.3682 C.2       10 UNK         0.4970 
     63 O          33.5336    3.7548   -8.1602 O.2       10 UNK        -0.4914 
     64 N          32.7090    1.7359   -7.5526 N.am      11 UNK        -0.4285 
     65 CA         33.4150    1.5926   -6.2722 C.3       11 UNK         0.1007 
     66 C          32.7419    2.3258   -5.0767 C.2       11 UNK         0.5703 
     67 N          31.5499    2.8906   -5.2233 N.am      11 UNK        -0.7361 
     68 O          33.3261    2.4036   -3.9987 O.2       11 UNK        -0.4986 
     69 C69        33.7470    0.1095   -5.9568 C.3       12 UNK        -0.0947 
     70 S70        32.3300   -1.0388   -6.0604 S.3       12 UNK        -0.2240 
     71 C71        31.8086   -1.1844   -4.3185 C.3       12 UNK         0.0194 
     72 H72        29.3541   -1.1511   -1.9465 H         1 UNK         0.0906 
     73 H73        28.2243   -0.1141   -1.0639 H         1 UNK         0.0906 
     74 H74        29.9287    0.3120   -1.1723 H         1 UNK         0.0906 
     75 H75        29.2531   -2.9860    1.2812 H         1 UNK         0.3140 
     76 H76        28.6692   -3.2409   -1.5233 H         1 UNK         0.1085 
     77 H77        27.4905   -5.3502   -0.7718 H         1 UNK         0.0836 
     78 H78        27.7744   -4.9107    0.8803 H         1 UNK         0.0836 
     79 H79        31.2691   -3.9385   -0.2055 H         1 UNK         0.0731 
     80 H80        31.9908   -5.3699   -0.8765 H         1 UNK         0.0731 
     81 H81        31.9842   -2.4917   -1.9754 H         1 UNK         0.1312 
     82 H82        30.2238   -2.8598   -5.8617 H         1 UNK         0.1406 
     83 H83        29.6891   -5.9706   -2.9584 H         1 UNK         0.1631 
     84 H84        28.2149   -5.8489   -4.9379 H         1 UNK         0.0717 
     85 H85        29.6750   -6.1733   -5.8383 H         1 UNK         0.0717 
     86 H86        26.1371   -4.1675   -6.0619 H         1 UNK         0.0934 
     87 H87        27.2935   -3.2082   -5.1731 H         1 UNK         0.0934 
     88 H88        26.5676   -2.6443   -8.0957 H         1 UNK         0.0739 
     89 H89        24.9644   -1.9582   -5.8128 H         1 UNK         0.3093 
     90 H90        23.1346    0.6391   -7.4545 H         1 UNK         0.0818 
     91 H91        21.2477   -0.8414   -6.8293 H         1 UNK         0.0819 
     92 H92        22.1030   -1.5113   -8.2074 H         1 UNK         0.0819 
     93 H93        22.3446   -2.2053   -6.6103 H         1 UNK         0.0819 
     94 H94        22.9033   -0.5140   -4.8530 H         1 UNK         0.3041 
     95 H95        25.2816    1.5414   -3.1960 H         1 UNK         0.0784 
     96 H96        23.2555    2.9939   -3.3979 H         1 UNK         0.0793 
     97 H97        22.2163    1.6048   -3.1128 H         1 UNK         0.0793 
     98 H98        23.3055    2.1742   -1.8471 H         1 UNK         0.0793 
     99 H99        23.4871   -0.3350   -2.1236 H         1 UNK         0.3024 
    100 H100       24.2734   -2.2743   -1.2772 H         1 UNK         0.1171 
    101 H101       23.9161   -4.4296   -2.4997 H         1 UNK         0.0786 
    102 H102       23.1426   -3.1037   -3.3494 H         1 UNK         0.0786 
    103 H103       24.6627   -3.7571   -3.9464 H         1 UNK         0.0786 
    104 H104       26.6143   -3.6434   -2.4642 H         1 UNK         0.2977 
    105 H105       27.0775   -0.5912   -5.2016 H         1 UNK         0.3127 
    106 H106       29.6580    0.3358   -5.7763 H         1 UNK         0.0770 
    107 H107       27.3748    1.8022   -4.3483 H         1 UNK         0.0814 
    108 H108       29.0819    2.1769   -4.1978 H         1 UNK         0.0814 
    109 H109       28.4694    0.6453   -3.5968 H         1 UNK         0.0814 
    110 H110       26.5230    1.6306   -6.9217 H         1 UNK         0.2983 
    111 H111       27.6466    3.8024   -8.4302 H         1 UNK         0.0947 
    112 H112       25.3694    3.8818   -9.4661 H         1 UNK         0.0806 
    113 H113       25.2807    3.7976   -7.7133 H         1 UNK         0.0806 
    114 H114       24.9491    2.3646   -8.6807 H         1 UNK         0.0806 
    115 H115       26.4984    0.5147   -9.4134 H         1 UNK         0.3000 
    116 H116       27.0208    0.8308  -12.1613 H         1 UNK         0.0850 
    117 H117       26.7208   -1.6580  -12.2457 H         1 UNK         0.0810 
    118 H118       25.4753   -0.8781  -11.2846 H         1 UNK         0.0810 
    119 H119       26.7997   -1.7265  -10.4894 H         1 UNK         0.0810 
    120 H120       29.0863   -0.7013   -9.6341 H         1 UNK         0.3040 
    121 H121       31.2396   -1.2378  -11.5680 H         1 UNK         0.0766 
    122 H122       31.0264   -1.6710   -8.5473 H         1 UNK         0.0812 
    123 H123       32.3543   -2.2239   -9.5570 H         1 UNK         0.0812 
    124 H124       30.7412   -2.8799   -9.7915 H         1 UNK         0.0812 
    125 H125       30.2626    1.4722   -9.8156 H         1 UNK         0.3205 
    126 H126       31.0445    3.4599   -9.3592 H         1 UNK         0.0754 
    127 H127       32.8805    4.4392  -10.6642 H         1 UNK         0.0769 
    128 H128       31.9058    3.4244  -11.7125 H         1 UNK         0.0769 
    129 H129       33.4683    2.8509  -11.1286 H         1 UNK         0.0769 
    130 H130       32.0475    1.0067   -7.7726 H         1 UNK         0.2981 
    131 H131       34.3789    2.0926   -6.3836 H         1 UNK         0.0541 
    132 H132       31.0353    2.8012   -6.0931 H         1 UNK         0.3459 
    133 H133       31.1466    3.3867   -4.4460 H         1 UNK         0.3459 
    134 H134       34.2426    0.0125   -4.9896 H         1 UNK         0.0612 
    135 H135       34.4807   -0.2419   -6.6837 H         1 UNK         0.0612 
    136 H136       31.1001   -0.3895   -4.0858 H         1 UNK         0.0624 
    137 H137       32.6767   -1.0149   -3.6803 H         1 UNK         0.0624 
@<TRIPOS>BOND
     1    1    2 1    
     2    1   72 1    
     3    1   73 1    
     4    1   74 1    
     5    2    3 2    
     6    2    4 am   BACKBONE|DICT|INTERRES
     7    4    5 1    
     8    4   75 1    
     9    5    6 1    
    10    5   35 1    
    11    5   76 1    
    12    6    7 1    
    13    6   77 1    
    14    6   78 1    
    15    7    8 1    
    16    8    9 1    
    17    8   79 1    
    18    8   80 1    
    19    9   10 ar   
    20    9   14 ar   
    21   10   11 ar   
    22   10   81 1    
    23   11   12 ar   
    24   11   71 1    
    25   12   13 ar   
    26   12   82 1    
    27   13   14 ar   
    28   13   15 1    
    29   14   83 1    
    30   15   16 1    
    31   15   84 1    
    32   15   85 1    
    33   16   17 1    
    34   17   18 1    
    35   17   86 1    
    36   17   87 1    
    37   18   19 1    
    38   18   37 1    
    39   18   88 1    
    40   19   20 am   BACKBONE|DICT|INTERRES
    41   19   89 1    
    42   20   21 2    
    43   20   22 1    
    44   22   23 1    
    45   22   24 1    
    46   22   90 1    
    47   23   91 1    
    48   23   92 1    
    49   23   93 1    
    50   24   25 am   BACKBONE|DICT|INTERRES
    51   24   94 1    
    52   25   26 2    
    53   25   27 1    
    54   27   28 1    
    55   27   29 1    
    56   27   95 1    
    57   28   96 1    
    58   28   97 1    
    59   28   98 1    
    60   29   30 am   BACKBONE|DICT|INTERRES
    61   29   99 1    
    62   30   31 2    
    63   30   32 1    
    64   32   33 1    
    65   32   34 1    
    66   32  100 1    
    67   33  101 1    
    68   33  102 1    
    69   33  103 1    
    70   34   35 am   BACKBONE|DICT|INTERRES
    71   34  104 1    
    72   35   36 2    
    73   37   38 2    
    74   37   39 am   BACKBONE|DICT|INTERRES
    75   39   40 1    
    76   39  105 1    
    77   40   41 1    
    78   40   42 1    
    79   40  106 1    
    80   41  107 1    
    81   41  108 1    
    82   41  109 1    
    83   42   43 2    
    84   42   44 am   BACKBONE|DICT|INTERRES
    85   44   45 1    
    86   44  110 1    
    87   45   46 1    
    88   45   47 1    
    89   45  111 1    
    90   46  112 1    
    91   46  113 1    
    92   46  114 1    
    93   47   48 2    
    94   47   49 am   BACKBONE|DICT|INTERRES
    95   49   50 1    
    96   49  115 1    
    97   50   51 1    
    98   50   52 1    
    99   50  116 1    
   100   51  117 1    
   101   51  118 1    
   102   51  119 1    
   103   52   53 2    
   104   52   54 am   BACKBONE|DICT|INTERRES
   105   54   55 1    
   106   54  120 1    
   107   55   56 1    
   108   55   57 1    
   109   55  121 1    
   110   56  122 1    
   111   56  123 1    
   112   56  124 1    
   113   57   58 2    
   114   57   59 am   BACKBONE|DICT|INTERRES
   115   59   60 1    
   116   59  125 1    
   117   60   61 1    
   118   60   62 1    
   119   60  126 1    
   120   61  127 1    
   121   61  128 1    
   122   61  129 1    
   123   62   63 2    
   124   62   64 am   BACKBONE|DICT|INTERRES
   125   64   65 1    
   126   64  130 1    
   127   65   66 1    
   128   65   69 1    
   129   65  131 1    
   130   66   67 am   BACKBONE|DICT|INTERRES
   131   66   68 2    
   132   67  132 1    
   133   67  133 1    
   134   69   70 1    
   135   69  134 1    
   136   69  135 1    
   137   70   71 1    
   138   71  136 1    
   139   71  137 1    
@<TRIPOS>SUBSTRUCTURE
     1 UNK         1 GROUP             0       ****    0 ROOT    
