@<TRIPOS>MOLECULE
3R137
137   139    1
SMALL
USER_CHARGES


@<TRIPOS>ATOM
      1 CA         25.8498   -6.8378   -5.2683 C.3       0 UNK        -0.2020 
      2 C          26.3166   -5.7096   -4.3620 C.2       0 UNK         0.4855 
      3 O          26.3937   -4.5642   -4.8060 O.2       0 UNK        -0.5197 
      4 N          26.6231   -6.0195   -3.0939 N.am      1 UNK        -0.4892 
      5 CA         27.0606   -5.0681   -2.0623 C.3       1 UNK         0.0835 
      6 C6         28.4664   -4.4775   -2.3815 C.3       12 UNK        -0.0855 
      7 S7         29.3716   -3.9860   -0.8796 S.3       12 UNK        -0.2931 
      8 C8         31.0054   -3.5758   -1.5729 C.3       12 UNK         0.0378 
      9 C9         31.0218   -2.2199   -2.2677 C.ar      12 UNK        -0.0802 
     10 C10        31.3562   -2.1170   -3.6223 C.ar      12 UNK        -0.0944 
     11 C11        31.4434   -0.8630   -4.2361 C.ar      12 UNK        -0.0787 
     12 C12        31.1768    0.2886   -3.4912 C.ar      12 UNK        -0.0862 
     13 C13        30.8059    0.1987   -2.1461 C.ar      12 UNK        -0.0733 
     14 C14        30.7454   -1.0589   -1.5388 C.ar      12 UNK        -0.0832 
     15 C15        30.4730    1.4474   -1.3330 C.3       12 UNK         0.0240 
     16 S16        29.3738    2.6298   -2.1908 S.3       12 UNK        -0.2522 
     17 C17        28.0225    1.5623   -2.7963 C.3       12 UNK        -0.0967 
     18 CA         27.9563    1.5602   -4.3495 C.3       5 UNK         0.0660 
     19 N          27.6387    0.2393   -4.8951 N.am      5 UNK        -0.4015 
     20 C          27.7754   -0.1152   -6.1814 C.2       4 UNK         0.4946 
     21 O          28.2333    0.6229   -7.0537 O.2       4 UNK        -0.5353 
     22 CA         27.2743   -1.5181   -6.5683 C.3       4 UNK         0.0277 
     23 CB         28.3876   -2.5583   -6.3668 C.3       4 UNK        -0.1981 
     24 N          26.0834   -1.9340   -5.8200 N.am      4 UNK        -0.4209 
     25 C          24.9020   -1.2990   -5.8439 C.2       3 UNK         0.4942 
     26 O          24.6623   -0.3275   -6.5585 O.2       3 UNK        -0.5208 
     27 CA         23.8328   -1.7764   -4.8481 C.3       3 UNK         0.0250 
     28 CB         23.1364   -3.0504   -5.3516 C.3       3 UNK        -0.1990 
     29 N          24.3729   -2.0001   -3.5041 N.am      3 UNK        -0.4232 
     30 C          24.9609   -1.0722   -2.7366 C.2       2 UNK         0.4993 
     31 O          25.0855    0.1053   -3.0734 O.2       2 UNK        -0.5286 
     32 CA         25.5689   -1.5303   -1.3976 C.3       2 UNK         0.0209 
     33 CB         24.4962   -1.6258   -0.2953 C.3       2 UNK        -0.1931 
     34 N          26.3713   -2.7599   -1.5047 N.am      2 UNK        -0.4546 
     35 C          25.9655   -4.0064   -1.7874 C.2       1 UNK         0.5154 
     36 O          24.7766   -4.3253   -1.8808 O.2       1 UNK        -0.5181 
     37 C          26.9807    2.6290   -4.8769 C.2       5 UNK         0.5014 
     38 O          27.4231    3.6770   -5.3482 O.2       5 UNK        -0.5248 
     39 N          25.6748    2.3281   -4.8125 N.am      6 UNK        -0.4434 
     40 CA         24.5901    3.1769   -5.3116 C.3       6 UNK         0.0363 
     41 CB         23.2380    2.5825   -4.8862 C.3       6 UNK        -0.1936 
     42 C          24.6407    3.3863   -6.8351 C.2       6 UNK         0.5081 
     43 O          24.4256    4.5062   -7.2996 O.2       6 UNK        -0.5248 
     44 N          24.9433    2.3157   -7.5819 N.am      7 UNK        -0.4718 
     45 CA         25.1389    2.3412   -9.0341 C.3       7 UNK         0.0273 
     46 CB         25.0923    0.9011   -9.5711 C.3       7 UNK        -0.1935 
     47 C          26.4527    3.0180   -9.4645 C.2       7 UNK         0.5018 
     48 O          26.5358    3.4789  -10.6036 O.2       7 UNK        -0.5186 
     49 N          27.4465    3.0397   -8.5626 N.am      8 UNK        -0.4240 
     50 CA         28.8356    3.4671   -8.7620 C.3       8 UNK         0.0235 
     51 CB         28.9179    4.9856   -9.0259 C.3       8 UNK        -0.2000 
     52 C          29.5327    2.6155   -9.8402 C.2       8 UNK         0.4941 
     53 O          30.1051    3.1588  -10.7879 O.2       8 UNK        -0.5273 
     54 N          29.4339    1.2904   -9.6863 N.am      9 UNK        -0.4262 
     55 CA         29.9360    0.2870  -10.6227 C.3       9 UNK         0.0264 
     56 CB         28.7337   -0.3768  -11.3167 C.3       9 UNK        -0.1955 
     57 C          30.7638   -0.7568   -9.8652 C.2       9 UNK         0.5031 
     58 O          30.5605   -0.9356   -8.6649 O.2       9 UNK        -0.5390 
     59 N          31.6536   -1.4493  -10.5906 N.am      10 UNK        -0.4204 
     60 CA         32.5818   -2.4756  -10.0939 C.3       10 UNK         0.0237 
     61 CB         31.8075   -3.7140   -9.5807 C.3       10 UNK        -0.1985 
     62 C          33.5990   -1.9070   -9.0788 C.2       10 UNK         0.4970 
     63 O          33.9512   -0.7301   -9.1816 O.2       10 UNK        -0.4914 
     64 N          34.0796   -2.7654   -8.1655 N.am      11 UNK        -0.4285 
     65 CA         35.0373   -2.5014   -7.0711 C.3       11 UNK         0.1007 
     66 C          36.3804   -1.8002   -7.4494 C.2       11 UNK         0.5703 
     67 N          36.8238   -1.8638   -8.6992 N.am      11 UNK        -0.7361 
     68 O          37.0600   -1.2346   -6.5955 O.2       11 UNK        -0.4986 
     69 C69        34.3627   -1.9650   -5.7719 C.3       12 UNK        -0.0947 
     70 S70        33.5823   -0.3200   -5.9068 S.3       12 UNK        -0.2240 
     71 C71        31.8218   -0.7357   -5.7037 C.3       12 UNK         0.0194 
     72 H72        26.5103   -6.9213   -6.1308 H         1 UNK         0.0906 
     73 H73        25.8393   -7.7983   -4.7535 H         1 UNK         0.0906 
     74 H74        24.8422   -6.6337   -5.6291 H         1 UNK         0.0906 
     75 H75        26.5006   -6.9715   -2.7769 H         1 UNK         0.3140 
     76 H76        27.1361   -5.6546   -1.1450 H         1 UNK         0.1085 
     77 H77        28.4107   -3.6420   -3.0819 H         1 UNK         0.0836 
     78 H78        29.0734   -5.2343   -2.8815 H         1 UNK         0.0836 
     79 H79        31.3253   -4.3703   -2.2490 H         1 UNK         0.0731 
     80 H80        31.7332   -3.5581   -0.7605 H         1 UNK         0.0731 
     81 H81        31.5677   -3.0098   -4.1943 H         1 UNK         0.1312 
     82 H82        31.2474    1.2576   -3.9656 H         1 UNK         0.1406 
     83 H83        30.4838   -1.1406   -0.4922 H         1 UNK         0.1631 
     84 H84        31.4022    1.9564   -1.0743 H         1 UNK         0.0717 
     85 H85        29.9996    1.1725   -0.3891 H         1 UNK         0.0717 
     86 H86        28.1744    0.5517   -2.4167 H         1 UNK         0.0934 
     87 H87        27.0853    1.8904   -2.3413 H         1 UNK         0.0934 
     88 H88        28.9432    1.8108   -4.7449 H         1 UNK         0.0739 
     89 H89        27.1984   -0.4145   -4.2667 H         1 UNK         0.3093 
     90 H90        27.0121   -1.4942   -7.6278 H         1 UNK         0.0818 
     91 H91        29.2847   -2.2857   -6.9202 H         1 UNK         0.0819 
     92 H92        28.6703   -2.6514   -5.3180 H         1 UNK         0.0819 
     93 H93        28.0803   -3.5422   -6.7210 H         1 UNK         0.0819 
     94 H94        26.1689   -2.7887   -5.2710 H         1 UNK         0.3041 
     95 H95        23.0821   -0.9873   -4.7701 H         1 UNK         0.0784 
     96 H96        22.7122   -2.8957   -6.3446 H         1 UNK         0.0793 
     97 H97        23.8266   -3.8917   -5.4190 H         1 UNK         0.0793 
     98 H98        22.3187   -3.3413   -4.6920 H         1 UNK         0.0793 
     99 H99        24.3363   -2.9478   -3.1377 H         1 UNK         0.3024 
    100 H100       26.2683   -0.7489   -1.0950 H         1 UNK         0.1171 
    101 H101       24.9355   -1.9089    0.6612 H         1 UNK         0.0786 
    102 H102       24.0031   -0.6632   -0.1530 H         1 UNK         0.0786 
    103 H103       23.7186   -2.3511   -0.5354 H         1 UNK         0.0786 
    104 H104       27.3724   -2.6274   -1.4268 H         1 UNK         0.2977 
    105 H105       25.4020    1.4569   -4.3616 H         1 UNK         0.3127 
    106 H106       24.6954    4.1562   -4.8400 H         1 UNK         0.0770 
    107 H107       23.0800    1.5918   -5.3137 H         1 UNK         0.0814 
    108 H108       22.4128    3.2156   -5.2148 H         1 UNK         0.0814 
    109 H109       23.1676    2.4928   -3.8020 H         1 UNK         0.0814 
    110 H110       25.0207    1.4077   -7.1262 H         1 UNK         0.2983 
    111 H111       24.3164    2.9036   -9.4815 H         1 UNK         0.0947 
    112 H112       25.2033    0.8830  -10.6562 H         1 UNK         0.0806 
    113 H113       24.1442    0.4188   -9.3330 H         1 UNK         0.0806 
    114 H114       25.8929    0.2909   -9.1508 H         1 UNK         0.0806 
    115 H115       27.2693    2.5853   -7.6753 H         1 UNK         0.3000 
    116 H116       29.3548    3.2649   -7.8236 H         1 UNK         0.0850 
    117 H117       29.9562    5.3164   -9.0698 H         1 UNK         0.0810 
    118 H118       28.4302    5.5504   -8.2313 H         1 UNK         0.0810 
    119 H119       28.4493    5.2617   -9.9709 H         1 UNK         0.0810 
    120 H120       29.0367    0.9231   -8.8223 H         1 UNK         0.3040 
    121 H121       30.5766    0.7516  -11.3753 H         1 UNK         0.0766 
    122 H122       28.1355    0.3571  -11.8573 H         1 UNK         0.0812 
    123 H123       28.0808   -0.8747  -10.5981 H         1 UNK         0.0812 
    124 H124       29.0586   -1.1268  -12.0388 H         1 UNK         0.0812 
    125 H125       31.7594   -1.2083  -11.5663 H         1 UNK         0.3205 
    126 H126       33.1676   -2.7905  -10.9588 H         1 UNK         0.0754 
    127 H127       32.4692   -4.5678   -9.4314 H         1 UNK         0.0769 
    128 H128       31.0496   -4.0277  -10.2987 H         1 UNK         0.0769 
    129 H129       31.3015   -3.5156   -8.6347 H         1 UNK         0.0769 
    130 H130       33.7408   -3.7150   -8.2063 H         1 UNK         0.2981 
    131 H131       35.3804   -3.5019   -6.8053 H         1 UNK         0.0541 
    132 H132       36.2805   -2.3230   -9.4119 H         1 UNK         0.3459 
    133 H133       37.6986   -1.4228   -8.9349 H         1 UNK         0.3459 
    134 H134       33.6161   -2.6868   -5.4412 H         1 UNK         0.0612 
    135 H135       35.0875   -1.9221   -4.9574 H         1 UNK         0.0612 
    136 H136       31.2197    0.0481   -6.1665 H         1 UNK         0.0624 
    137 H137       31.5933   -1.6532   -6.2476 H         1 UNK         0.0624 
@<TRIPOS>BOND
     1    1    2 1    
     2    1   72 1    
     3    1   73 1    
     4    1   74 1    
     5    2    3 2    
     6    2    4 am   BACKBONE|DICT|INTERRES
     7    4    5 1    
     8    4   75 1    
     9    5    6 1    
    10    5   35 1    
    11    5   76 1    
    12    6    7 1    
    13    6   77 1    
    14    6   78 1    
    15    7    8 1    
    16    8    9 1    
    17    8   79 1    
    18    8   80 1    
    19    9   10 ar   
    20    9   14 ar   
    21   10   11 ar   
    22   10   81 1    
    23   11   12 ar   
    24   11   71 1    
    25   12   13 ar   
    26   12   82 1    
    27   13   14 ar   
    28   13   15 1    
    29   14   83 1    
    30   15   16 1    
    31   15   84 1    
    32   15   85 1    
    33   16   17 1    
    34   17   18 1    
    35   17   86 1    
    36   17   87 1    
    37   18   19 1    
    38   18   37 1    
    39   18   88 1    
    40   19   20 am   BACKBONE|DICT|INTERRES
    41   19   89 1    
    42   20   21 2    
    43   20   22 1    
    44   22   23 1    
    45   22   24 1    
    46   22   90 1    
    47   23   91 1    
    48   23   92 1    
    49   23   93 1    
    50   24   25 am   BACKBONE|DICT|INTERRES
    51   24   94 1    
    52   25   26 2    
    53   25   27 1    
    54   27   28 1    
    55   27   29 1    
    56   27   95 1    
    57   28   96 1    
    58   28   97 1    
    59   28   98 1    
    60   29   30 am   BACKBONE|DICT|INTERRES
    61   29   99 1    
    62   30   31 2    
    63   30   32 1    
    64   32   33 1    
    65   32   34 1    
    66   32  100 1    
    67   33  101 1    
    68   33  102 1    
    69   33  103 1    
    70   34   35 am   BACKBONE|DICT|INTERRES
    71   34  104 1    
    72   35   36 2    
    73   37   38 2    
    74   37   39 am   BACKBONE|DICT|INTERRES
    75   39   40 1    
    76   39  105 1    
    77   40   41 1    
    78   40   42 1    
    79   40  106 1    
    80   41  107 1    
    81   41  108 1    
    82   41  109 1    
    83   42   43 2    
    84   42   44 am   BACKBONE|DICT|INTERRES
    85   44   45 1    
    86   44  110 1    
    87   45   46 1    
    88   45   47 1    
    89   45  111 1    
    90   46  112 1    
    91   46  113 1    
    92   46  114 1    
    93   47   48 2    
    94   47   49 am   BACKBONE|DICT|INTERRES
    95   49   50 1    
    96   49  115 1    
    97   50   51 1    
    98   50   52 1    
    99   50  116 1    
   100   51  117 1    
   101   51  118 1    
   102   51  119 1    
   103   52   53 2    
   104   52   54 am   BACKBONE|DICT|INTERRES
   105   54   55 1    
   106   54  120 1    
   107   55   56 1    
   108   55   57 1    
   109   55  121 1    
   110   56  122 1    
   111   56  123 1    
   112   56  124 1    
   113   57   58 2    
   114   57   59 am   BACKBONE|DICT|INTERRES
   115   59   60 1    
   116   59  125 1    
   117   60   61 1    
   118   60   62 1    
   119   60  126 1    
   120   61  127 1    
   121   61  128 1    
   122   61  129 1    
   123   62   63 2    
   124   62   64 am   BACKBONE|DICT|INTERRES
   125   64   65 1    
   126   64  130 1    
   127   65   66 1    
   128   65   69 1    
   129   65  131 1    
   130   66   67 am   BACKBONE|DICT|INTERRES
   131   66   68 2    
   132   67  132 1    
   133   67  133 1    
   134   69   70 1    
   135   69  134 1    
   136   69  135 1    
   137   70   71 1    
   138   71  136 1    
   139   71  137 1    
@<TRIPOS>SUBSTRUCTURE
     1 UNK         1 GROUP             0       ****    0 ROOT    
