@<TRIPOS>MOLECULE
3R137
137   139    1
SMALL
USER_CHARGES


@<TRIPOS>ATOM
      1 CA         27.3709   -0.4166    3.4258 C.3       0 UNK        -0.2020 
      2 C          27.2971   -0.5660    1.9134 C.2       0 UNK         0.4855 
      3 O          26.6126    0.2170    1.2536 O.2       0 UNK        -0.5197 
      4 N          28.0038   -1.5584    1.3587 N.am      1 UNK        -0.4892 
      5 CA         28.0142   -1.8800   -0.0728 C.3       1 UNK         0.0835 
      6 C6         29.1928   -2.8132   -0.4415 C.3       12 UNK        -0.0855 
      7 S7         30.8062   -1.9868   -0.2304 S.3       12 UNK        -0.2931 
      8 C8         31.0446   -1.2086   -1.8619 C.3       12 UNK         0.0378 
      9 C9         31.4946   -2.2111   -2.9148 C.ar      12 UNK        -0.0802 
     10 C10        32.8514   -2.5200   -3.0514 C.ar      12 UNK        -0.0944 
     11 C11        33.2794   -3.4282   -4.0241 C.ar      12 UNK        -0.0787 
     12 C12        32.3363   -4.0332   -4.8610 C.ar      12 UNK        -0.0862 
     13 C13        30.9758   -3.7345   -4.7336 C.ar      12 UNK        -0.0733 
     14 C14        30.5631   -2.8163   -3.7641 C.ar      12 UNK        -0.0832 
     15 C15        29.9535   -4.4343   -5.6186 C.3       12 UNK         0.0240 
     16 S16        29.3522   -3.3540   -6.9529 S.3       12 UNK        -0.2522 
     17 C17        27.7762   -2.7591   -6.2540 C.3       12 UNK        -0.0967 
     18 CA         27.0231   -1.8250   -7.2339 C.3       5 UNK         0.0660 
     19 N          25.5721   -1.9205   -7.0809 N.am      5 UNK        -0.4015 
     20 C          24.6884   -1.6166   -8.0420 C.2       4 UNK         0.4946 
     21 O          25.0023   -1.2906   -9.1870 O.2       4 UNK        -0.5353 
     22 CA         23.1986   -1.6718   -7.6603 C.3       4 UNK         0.0277 
     23 CB         22.6174   -3.0630   -7.9596 C.3       4 UNK        -0.1981 
     24 N          22.9466   -1.3289   -6.2576 N.am      4 UNK        -0.4209 
     25 C          23.1470   -0.1128   -5.7309 C.2       3 UNK         0.4942 
     26 O          23.5515    0.8552   -6.3737 O.2       3 UNK        -0.5208 
     27 CA         22.9034    0.0342   -4.2205 C.3       3 UNK         0.0250 
     28 CB         21.4099    0.2580   -3.9338 C.3       3 UNK        -0.1990 
     29 N          23.3986   -1.0917   -3.4179 N.am      3 UNK        -0.4232 
     30 C          24.6723   -1.5064   -3.3834 C.2       2 UNK         0.4993 
     31 O          25.5648   -1.0651   -4.1133 O.2       2 UNK        -0.5286 
     32 CA         25.0242   -2.6054   -2.3805 C.3       2 UNK         0.0209 
     33 CB         25.1530   -3.9704   -3.0784 C.3       2 UNK        -0.1931 
     34 N          26.2976   -2.2300   -1.7768 N.am      2 UNK        -0.4546 
     35 C          26.6710   -2.4928   -0.5206 C.2       1 UNK         0.5154 
     36 O          26.0184   -3.1952    0.2569 O.2       1 UNK        -0.5181 
     37 C          27.4730   -0.3589   -7.1063 C.2       5 UNK         0.5014 
     38 O          28.2389    0.1142   -7.9445 O.2       5 UNK        -0.5248 
     39 N          26.9552    0.3564   -6.0960 N.am      6 UNK        -0.4434 
     40 CA         27.2079    1.7814   -5.8577 C.3       6 UNK         0.0363 
     41 CB         26.4911    2.2259   -4.5741 C.3       6 UNK        -0.1936 
     42 C          26.8074    2.6740   -7.0457 C.2       6 UNK         0.5081 
     43 O          27.5593    3.5824   -7.3975 O.2       6 UNK        -0.5248 
     44 N          25.6786    2.3535   -7.6945 N.am      7 UNK        -0.4718 
     45 CA         25.2124    2.9812   -8.9369 C.3       7 UNK         0.0273 
     46 CB         23.8111    2.4479   -9.2748 C.3       7 UNK        -0.1935 
     47 C          26.1610    2.7885  -10.1377 C.2       7 UNK         0.5018 
     48 O          26.1409    3.6116  -11.0532 O.2       7 UNK        -0.5186 
     49 N          26.9828    1.7308  -10.1067 N.am      8 UNK        -0.4240 
     50 CA         28.0298    1.4359  -11.0870 C.3       8 UNK         0.0235 
     51 CB         28.0241   -0.0777  -11.3706 C.3       8 UNK        -0.2000 
     52 C          29.4212    1.9125  -10.6190 C.2       8 UNK         0.4941 
     53 O          30.4113    1.5711  -11.2668 O.2       8 UNK        -0.5273 
     54 N          29.4801    2.6826   -9.5192 N.am      9 UNK        -0.4262 
     55 CA         30.6776    3.2051   -8.8488 C.3       9 UNK         0.0264 
     56 CB         31.4956    4.1284   -9.7783 C.3       9 UNK        -0.1955 
     57 C          31.5313    2.1163   -8.1668 C.2       9 UNK         0.5031 
     58 O          32.7470    2.2854   -8.0419 O.2       9 UNK        -0.5390 
     59 N          30.8771    1.0420   -7.6990 N.am      10 UNK        -0.4204 
     60 CA         31.4452   -0.0994   -6.9757 C.3       10 UNK         0.0237 
     61 CB         31.9735    0.3469   -5.5927 C.3       10 UNK        -0.1985 
     62 C          32.4691   -0.8795   -7.8249 C.2       10 UNK         0.4970 
     63 O          32.3303   -0.9415   -9.0483 O.2       10 UNK        -0.4914 
     64 N          33.4733   -1.4675   -7.1671 N.am      11 UNK        -0.4285 
     65 CA         34.6289   -2.1221   -7.7961 C.3       11 UNK         0.1007 
     66 C          35.7034   -1.1445   -8.3644 C.2       11 UNK         0.5703 
     67 N          35.5420    0.1704   -8.2618 N.am      11 UNK        -0.7361 
     68 O          36.7004   -1.5890   -8.9290 O.2       11 UNK        -0.4986 
     69 C69        35.2372   -3.2119   -6.8722 C.3       12 UNK        -0.0947 
     70 S70        35.6698   -2.6172   -5.1982 S.3       12 UNK        -0.2240 
     71 C71        34.7563   -3.7814   -4.1364 C.3       12 UNK         0.0194 
     72 H72        26.3780   -0.5234    3.8619 H         1 UNK         0.0906 
     73 H73        28.0221   -1.1641    3.8786 H         1 UNK         0.0906 
     74 H74        27.7540    0.5694    3.6873 H         1 UNK         0.0906 
     75 H75        28.5415   -2.1781    1.9477 H         1 UNK         0.3140 
     76 H76        28.1373   -0.9398   -0.6155 H         1 UNK         0.1085 
     77 H77        29.1798   -3.7075    0.1845 H         1 UNK         0.0836 
     78 H78        29.1071   -3.1760   -1.4653 H         1 UNK         0.0836 
     79 H79        30.1267   -0.7081   -2.1739 H         1 UNK         0.0731 
     80 H80        31.7954   -0.4226   -1.7664 H         1 UNK         0.0731 
     81 H81        33.5755   -2.0551   -2.3959 H         1 UNK         0.1312 
     82 H82        32.6584   -4.7507   -5.6027 H         1 UNK         0.1406 
     83 H83        29.5143   -2.5806   -3.6644 H         1 UNK         0.1631 
     84 H84        30.3950   -5.3233   -6.0714 H         1 UNK         0.0717 
     85 H85        29.1193   -4.7916   -5.0129 H         1 UNK         0.0717 
     86 H86        27.1727   -3.6453   -6.0506 H         1 UNK         0.0934 
     87 H87        27.9411   -2.2828   -5.2867 H         1 UNK         0.0934 
     88 H88        27.2567   -2.1446   -8.2525 H         1 UNK         0.0739 
     89 H89        25.2287   -2.1129   -6.1507 H         1 UNK         0.3093 
     90 H90        22.6758   -0.9415   -8.2822 H         1 UNK         0.0818 
     91 H91        21.5432   -3.0927   -7.7758 H         1 UNK         0.0819 
     92 H92        22.7720   -3.3326   -9.0055 H         1 UNK         0.0819 
     93 H93        23.0851   -3.8381   -7.3511 H         1 UNK         0.0819 
     94 H94        22.6084   -2.0652   -5.6551 H         1 UNK         0.3041 
     95 H95        23.4441    0.9241   -3.8926 H         1 UNK         0.0784 
     96 H96        21.0244    1.1012   -4.5092 H         1 UNK         0.0793 
     97 H97        20.8106   -0.6153   -4.1941 H         1 UNK         0.0793 
     98 H98        21.2369    0.4828   -2.8811 H         1 UNK         0.0793 
     99 H99        22.7301   -1.5237   -2.7957 H         1 UNK         0.3024 
    100 H100       24.2492   -2.6551   -1.6117 H         1 UNK         0.1171 
    101 H101       25.4028   -4.7557   -2.3648 H         1 UNK         0.0786 
    102 H102       24.2163   -4.2556   -3.5589 H         1 UNK         0.0786 
    103 H103       25.9274   -3.9605   -3.8461 H         1 UNK         0.0786 
    104 H104       26.8552   -1.6149   -2.3560 H         1 UNK         0.2977 
    105 H105       26.3519   -0.1152   -5.4228 H         1 UNK         0.3127 
    106 H106       28.2830    1.8984   -5.7061 H         1 UNK         0.0770 
    107 H107       25.4089    2.1336   -4.6660 H         1 UNK         0.0814 
    108 H108       26.7114    3.2695   -4.3463 H         1 UNK         0.0814 
    109 H109       26.8062    1.6318   -3.7161 H         1 UNK         0.0814 
    110 H110       25.0782    1.6350   -7.2966 H         1 UNK         0.2983 
    111 H111       25.1372    4.0554   -8.7554 H         1 UNK         0.0947 
    112 H112       23.4256    2.9055  -10.1869 H         1 UNK         0.0806 
    113 H113       23.1005    2.6675   -8.4778 H         1 UNK         0.0806 
    114 H114       23.8190    1.3678   -9.4276 H         1 UNK         0.0806 
    115 H115       26.9611    1.1224   -9.2961 H         1 UNK         0.3000 
    116 H116       27.8144    1.9537  -12.0239 H         1 UNK         0.0850 
    117 H117       28.7247   -0.3306  -12.1673 H         1 UNK         0.0810 
    118 H118       27.0381   -0.4187  -11.6869 H         1 UNK         0.0810 
    119 H119       28.3104   -0.6555  -10.4913 H         1 UNK         0.0810 
    120 H120       28.6090    2.9018   -9.0468 H         1 UNK         0.3040 
    121 H121       30.3026    3.8269   -8.0345 H         1 UNK         0.0766 
    122 H122       30.8652    4.8886  -10.2393 H         1 UNK         0.0812 
    123 H123       31.9888    3.5702  -10.5743 H         1 UNK         0.0812 
    124 H124       32.2750    4.6498   -9.2213 H         1 UNK         0.0812 
    125 H125       29.8865    0.9444   -7.9157 H         1 UNK         0.3205 
    126 H126       30.6164   -0.7832   -6.8004 H         1 UNK         0.0754 
    127 H127       32.2496   -0.5070   -4.9773 H         1 UNK         0.0769 
    128 H128       31.2106    0.8966   -5.0413 H         1 UNK         0.0769 
    129 H129       32.8508    0.9893   -5.6758 H         1 UNK         0.0769 
    130 H130       33.5191   -1.3857   -6.1619 H         1 UNK         0.2981 
    131 H131       34.2549   -2.6497   -8.6754 H         1 UNK         0.0541 
    132 H132       34.7071    0.5605   -7.8514 H         1 UNK         0.3459 
    133 H133       36.2462    0.7819   -8.6428 H         1 UNK         0.3459 
    134 H134       36.1292   -3.6523   -7.3209 H         1 UNK         0.0612 
    135 H135       34.5301   -4.0366   -6.7891 H         1 UNK         0.0612 
    136 H136       35.2081   -3.7690   -3.1434 H         1 UNK         0.0624 
    137 H137       34.8828   -4.7990   -4.5093 H         1 UNK         0.0624 
@<TRIPOS>BOND
     1    1    2 1    
     2    1   72 1    
     3    1   73 1    
     4    1   74 1    
     5    2    3 2    
     6    2    4 am   BACKBONE|DICT|INTERRES
     7    4    5 1    
     8    4   75 1    
     9    5    6 1    
    10    5   35 1    
    11    5   76 1    
    12    6    7 1    
    13    6   77 1    
    14    6   78 1    
    15    7    8 1    
    16    8    9 1    
    17    8   79 1    
    18    8   80 1    
    19    9   10 ar   
    20    9   14 ar   
    21   10   11 ar   
    22   10   81 1    
    23   11   12 ar   
    24   11   71 1    
    25   12   13 ar   
    26   12   82 1    
    27   13   14 ar   
    28   13   15 1    
    29   14   83 1    
    30   15   16 1    
    31   15   84 1    
    32   15   85 1    
    33   16   17 1    
    34   17   18 1    
    35   17   86 1    
    36   17   87 1    
    37   18   19 1    
    38   18   37 1    
    39   18   88 1    
    40   19   20 am   BACKBONE|DICT|INTERRES
    41   19   89 1    
    42   20   21 2    
    43   20   22 1    
    44   22   23 1    
    45   22   24 1    
    46   22   90 1    
    47   23   91 1    
    48   23   92 1    
    49   23   93 1    
    50   24   25 am   BACKBONE|DICT|INTERRES
    51   24   94 1    
    52   25   26 2    
    53   25   27 1    
    54   27   28 1    
    55   27   29 1    
    56   27   95 1    
    57   28   96 1    
    58   28   97 1    
    59   28   98 1    
    60   29   30 am   BACKBONE|DICT|INTERRES
    61   29   99 1    
    62   30   31 2    
    63   30   32 1    
    64   32   33 1    
    65   32   34 1    
    66   32  100 1    
    67   33  101 1    
    68   33  102 1    
    69   33  103 1    
    70   34   35 am   BACKBONE|DICT|INTERRES
    71   34  104 1    
    72   35   36 2    
    73   37   38 2    
    74   37   39 am   BACKBONE|DICT|INTERRES
    75   39   40 1    
    76   39  105 1    
    77   40   41 1    
    78   40   42 1    
    79   40  106 1    
    80   41  107 1    
    81   41  108 1    
    82   41  109 1    
    83   42   43 2    
    84   42   44 am   BACKBONE|DICT|INTERRES
    85   44   45 1    
    86   44  110 1    
    87   45   46 1    
    88   45   47 1    
    89   45  111 1    
    90   46  112 1    
    91   46  113 1    
    92   46  114 1    
    93   47   48 2    
    94   47   49 am   BACKBONE|DICT|INTERRES
    95   49   50 1    
    96   49  115 1    
    97   50   51 1    
    98   50   52 1    
    99   50  116 1    
   100   51  117 1    
   101   51  118 1    
   102   51  119 1    
   103   52   53 2    
   104   52   54 am   BACKBONE|DICT|INTERRES
   105   54   55 1    
   106   54  120 1    
   107   55   56 1    
   108   55   57 1    
   109   55  121 1    
   110   56  122 1    
   111   56  123 1    
   112   56  124 1    
   113   57   58 2    
   114   57   59 am   BACKBONE|DICT|INTERRES
   115   59   60 1    
   116   59  125 1    
   117   60   61 1    
   118   60   62 1    
   119   60  126 1    
   120   61  127 1    
   121   61  128 1    
   122   61  129 1    
   123   62   63 2    
   124   62   64 am   BACKBONE|DICT|INTERRES
   125   64   65 1    
   126   64  130 1    
   127   65   66 1    
   128   65   69 1    
   129   65  131 1    
   130   66   67 am   BACKBONE|DICT|INTERRES
   131   66   68 2    
   132   67  132 1    
   133   67  133 1    
   134   69   70 1    
   135   69  134 1    
   136   69  135 1    
   137   70   71 1    
   138   71  136 1    
   139   71  137 1    
@<TRIPOS>SUBSTRUCTURE
     1 UNK         1 GROUP             0       ****    0 ROOT    
