@<TRIPOS>MOLECULE
3R137
137   139    1
SMALL
USER_CHARGES


@<TRIPOS>ATOM
      1 CA         25.7547   -1.4234    1.6530 C.3       0 UNK        -0.2020 
      2 C          25.4950   -2.7796    0.9997 C.2       0 UNK         0.4855 
      3 O          24.7453   -3.5792    1.5570 O.2       0 UNK        -0.5197 
      4 N          26.0921   -3.1006   -0.1573 N.am      1 UNK        -0.4892 
      5 CA         26.9616   -2.2569   -0.9900 C.3       1 UNK         0.0835 
      6 C6         27.6255   -3.0774   -2.1252 C.3       12 UNK        -0.0855 
      7 S7         28.6536   -4.4405   -1.4784 S.3       12 UNK        -0.2931 
      8 C8         30.3462   -3.8934   -1.9084 C.3       12 UNK         0.0378 
      9 C9         30.7039   -3.9592   -3.3958 C.ar      12 UNK        -0.0802 
     10 C10        31.7848   -3.2034   -3.8628 C.ar      12 UNK        -0.0944 
     11 C11        32.1585   -3.2388   -5.2103 C.ar      12 UNK        -0.0787 
     12 C12        31.4366   -4.0366   -6.1028 C.ar      12 UNK        -0.0862 
     13 C13        30.3675   -4.8145   -5.6503 C.ar      12 UNK        -0.0733 
     14 C14        30.0150   -4.7797   -4.2981 C.ar      12 UNK        -0.0832 
     15 C15        29.6137   -5.7225   -6.6129 C.3       12 UNK         0.0240 
     16 S16        28.4413   -4.8100   -7.6651 S.3       12 UNK        -0.2522 
     17 C17        27.2174   -4.2044   -6.4484 C.3       12 UNK        -0.0967 
     18 CA         26.6061   -2.8226   -6.8173 C.3       5 UNK         0.0660 
     19 N          25.5310   -2.4038   -5.9122 N.am      5 UNK        -0.4015 
     20 C          24.3467   -3.0306   -5.8270 C.2       4 UNK         0.4946 
     21 O          24.0429   -4.0087   -6.5118 O.2       4 UNK        -0.5353 
     22 CA         23.3140   -2.5115   -4.8107 C.3       4 UNK         0.0277 
     23 CB         23.3543   -3.3615   -3.5300 C.3       4 UNK        -0.1981 
     24 N          23.4735   -1.0959   -4.4730 N.am      4 UNK        -0.4209 
     25 C          23.1687   -0.0912   -5.3099 C.2       3 UNK         0.4942 
     26 O          22.7086   -0.2670   -6.4387 O.2       3 UNK        -0.5208 
     27 CA         23.4065    1.3548   -4.8312 C.3       3 UNK         0.0250 
     28 CB         22.0711    2.0232   -4.4647 C.3       3 UNK        -0.1990 
     29 N          24.3313    1.4959   -3.7035 N.am      3 UNK        -0.4232 
     30 C          25.6117    1.1047   -3.6855 C.2       2 UNK         0.4993 
     31 O          26.1665    0.5487   -4.6355 O.2       2 UNK        -0.5286 
     32 CA         26.3986    1.3142   -2.3758 C.3       2 UNK         0.0209 
     33 CB         25.6172    2.0767   -1.2803 C.3       2 UNK        -0.1931 
     34 N          26.9082    0.0459   -1.8346 N.am      2 UNK        -0.4546 
     35 C          26.1893   -1.0575   -1.5790 C.2       1 UNK         0.5154 
     36 O          24.9787   -1.1537   -1.7986 O.2       1 UNK        -0.5181 
     37 C          27.6771   -1.7268   -6.9320 C.2       5 UNK         0.5014 
     38 O          27.9847   -1.3085   -8.0480 O.2       5 UNK        -0.5248 
     39 N          28.2343   -1.2880   -5.7936 N.am      6 UNK        -0.4434 
     40 CA         29.3989   -0.3965   -5.7110 C.3       6 UNK         0.0363 
     41 CB         29.7258   -0.0990   -4.2406 C.3       6 UNK        -0.1936 
     42 C          29.2810    0.9180   -6.5011 C.2       6 UNK         0.5081 
     43 O          30.2610    1.3483   -7.1097 O.2       6 UNK        -0.5248 
     44 N          28.0814    1.5119   -6.5082 N.am      7 UNK        -0.4718 
     45 CA         27.7600    2.7246   -7.2648 C.3       7 UNK         0.0273 
     46 CB         26.4026    3.2692   -6.7957 C.3       7 UNK        -0.1935 
     47 C          27.7504    2.5120   -8.7897 C.2       7 UNK         0.5018 
     48 O          28.0732    3.4454   -9.5245 O.2       7 UNK        -0.5186 
     49 N          27.3909    1.3007   -9.2376 N.am      8 UNK        -0.4240 
     50 CA         27.4109    0.8993  -10.6462 C.3       8 UNK         0.0235 
     51 CB         26.3818   -0.2180  -10.8854 C.3       8 UNK        -0.2000 
     52 C          28.8165    0.4542  -11.0769 C.2       8 UNK         0.4941 
     53 O          29.2356    0.7717  -12.1903 O.2       8 UNK        -0.5273 
     54 N          29.5277   -0.2449  -10.1795 N.am      9 UNK        -0.4262 
     55 CA         30.9305   -0.6401  -10.3381 C.3       9 UNK         0.0264 
     56 CB         31.3039   -1.6340   -9.2252 C.3       9 UNK        -0.1955 
     57 C          31.9008    0.5569  -10.3367 C.2       9 UNK         0.5031 
     58 O          32.9704    0.4613  -10.9398 O.2       9 UNK        -0.5390 
     59 N          31.5074    1.6469   -9.6598 N.am      10 UNK        -0.4204 
     60 CA         32.2339    2.9059   -9.4629 C.3       10 UNK         0.0237 
     61 CB         32.4847    3.6262  -10.8051 C.3       10 UNK        -0.1985 
     62 C          33.5081    2.7327   -8.6145 C.2       10 UNK         0.4970 
     63 O          34.4849    3.4566   -8.8170 O.2       10 UNK        -0.4914 
     64 N          33.4698    1.7817   -7.6734 N.am      11 UNK        -0.4285 
     65 CA         34.5595    1.4785   -6.7341 C.3       11 UNK         0.1007 
     66 C          34.5916    2.3877   -5.4708 C.2       11 UNK         0.5703 
     67 N          33.5939    3.2316   -5.2316 N.am      11 UNK        -0.7361 
     68 O          35.5511    2.3408   -4.7044 O.2       11 UNK        -0.4986 
     69 C69        34.6002   -0.0321   -6.3835 C.3       12 UNK        -0.0947 
     70 S70        33.0427   -0.6576   -5.6745 S.3       12 UNK        -0.2240 
     71 C71        33.3641   -2.4442   -5.6919 C.3       12 UNK         0.0194 
     72 H72        26.8087   -1.1517    1.6229 H         1 UNK         0.0906 
     73 H73        25.1733   -0.6438    1.1614 H         1 UNK         0.0906 
     74 H74        25.4569   -1.4465    2.7011 H         1 UNK         0.0906 
     75 H75        25.9033   -4.0129   -0.5461 H         1 UNK         0.3140 
     76 H76        27.7567   -1.8661   -0.3523 H         1 UNK         0.1085 
     77 H77        26.8686   -3.5070   -2.7846 H         1 UNK         0.0836 
     78 H78        28.2453   -2.4385   -2.7550 H         1 UNK         0.0836 
     79 H79        31.0537   -4.5194   -1.3632 H         1 UNK         0.0731 
     80 H80        30.4867   -2.8769   -1.5372 H         1 UNK         0.0731 
     81 H81        32.3444   -2.5837   -3.1751 H         1 UNK         0.1312 
     82 H82        31.7159   -4.0697   -7.1471 H         1 UNK         0.1406 
     83 H83        29.2002   -5.4011   -3.9547 H         1 UNK         0.1631 
     84 H84        29.0757   -6.5019   -6.0709 H         1 UNK         0.0717 
     85 H85        30.3290   -6.2397   -7.2541 H         1 UNK         0.0717 
     86 H86        26.4385   -4.9646   -6.3866 H         1 UNK         0.0934 
     87 H87        27.6572   -4.1597   -5.4535 H         1 UNK         0.0934 
     88 H88        26.1594   -2.9144   -7.8102 H         1 UNK         0.0739 
     89 H89        25.6784   -1.5484   -5.3883 H         1 UNK         0.3093 
     90 H90        22.3260   -2.6362   -5.2599 H         1 UNK         0.0818 
     91 H91        22.6370   -3.0058   -2.7903 H         1 UNK         0.0819 
     92 H92        23.1070   -4.4015   -3.7474 H         1 UNK         0.0819 
     93 H93        24.3420   -3.3562   -3.0697 H         1 UNK         0.0819 
     94 H94        23.8611   -0.8845   -3.5586 H         1 UNK         0.3041 
     95 H95        23.8351    1.8988   -5.6735 H         1 UNK         0.0784 
     96 H96        21.3652    1.9698   -5.2949 H         1 UNK         0.0793 
     97 H97        21.6013    1.5409   -3.6065 H         1 UNK         0.0793 
     98 H98        22.2061    3.0785   -4.2268 H         1 UNK         0.0793 
     99 H99        23.9527    1.9071   -2.8627 H         1 UNK         0.3024 
    100 H100       27.2652    1.9202   -2.6450 H         1 UNK         0.1171 
    101 H101       25.2922    3.0573   -1.6312 H         1 UNK         0.0786 
    102 H102       24.7360    1.5296   -0.9425 H         1 UNK         0.0786 
    103 H103       26.2453    2.2498   -0.4062 H         1 UNK         0.0786 
    104 H104       27.8996    0.0296   -1.6402 H         1 UNK         0.2977 
    105 H105       27.9047   -1.6636   -4.9198 H         1 UNK         0.3127 
    106 H106       30.2328   -0.9536   -6.1369 H         1 UNK         0.0770 
    107 H107       28.9084    0.4243   -3.7488 H         1 UNK         0.0814 
    108 H108       30.6100    0.5349   -4.1602 H         1 UNK         0.0814 
    109 H109       29.9370   -1.0106   -3.6844 H         1 UNK         0.0814 
    110 H110       27.3390    1.0983   -5.9464 H         1 UNK         0.2983 
    111 H111       28.5256    3.4712   -7.0421 H         1 UNK         0.0947 
    112 H112       26.1642    4.2079   -7.2976 H         1 UNK         0.0806 
    113 H113       26.3986    3.4645   -5.7234 H         1 UNK         0.0806 
    114 H114       25.5974    2.5684   -7.0159 H         1 UNK         0.0806 
    115 H115       27.2248    0.5649   -8.5610 H         1 UNK         0.3000 
    116 H116       27.1268    1.7549  -11.2631 H         1 UNK         0.0850 
    117 H117       26.3533   -0.4991  -11.9390 H         1 UNK         0.0810 
    118 H118       25.3774    0.1029  -10.6087 H         1 UNK         0.0810 
    119 H119       26.6143   -1.1185  -10.3162 H         1 UNK         0.0810 
    120 H120       29.0625   -0.5347   -9.3206 H         1 UNK         0.3040 
    121 H121       31.0290   -1.1464  -11.3006 H         1 UNK         0.0766 
    122 H122       31.2433   -1.1738   -8.2394 H         1 UNK         0.0812 
    123 H123       32.3249   -1.9966   -9.3510 H         1 UNK         0.0812 
    124 H124       30.6457   -2.5034   -9.2282 H         1 UNK         0.0812 
    125 H125       30.6624    1.5580   -9.1048 H         1 UNK         0.3205 
    126 H126       31.5692    3.5392   -8.8734 H         1 UNK         0.0754 
    127 H127       32.8813    4.6292  -10.6426 H         1 UNK         0.0769 
    128 H128       31.5614    3.7323  -11.3749 H         1 UNK         0.0769 
    129 H129       33.2032    3.0903  -11.4259 H         1 UNK         0.0769 
    130 H130       32.6104    1.2663   -7.5337 H         1 UNK         0.2981 
    131 H131       35.4990    1.6899   -7.2482 H         1 UNK         0.0541 
    132 H132       32.7988    3.2686   -5.8485 H         1 UNK         0.3459 
    133 H133       33.6306    3.8208   -4.4151 H         1 UNK         0.3459 
    134 H134       35.4168   -0.2517   -5.6934 H         1 UNK         0.0612 
    135 H135       34.8134   -0.6025   -7.2889 H         1 UNK         0.0612 
    136 H136       34.2212   -2.6616   -5.0531 H         1 UNK         0.0624 
    137 H137       33.6433   -2.7463   -6.7025 H         1 UNK         0.0624 
@<TRIPOS>BOND
     1    1    2 1    
     2    1   72 1    
     3    1   73 1    
     4    1   74 1    
     5    2    3 2    
     6    2    4 am   BACKBONE|DICT|INTERRES
     7    4    5 1    
     8    4   75 1    
     9    5    6 1    
    10    5   35 1    
    11    5   76 1    
    12    6    7 1    
    13    6   77 1    
    14    6   78 1    
    15    7    8 1    
    16    8    9 1    
    17    8   79 1    
    18    8   80 1    
    19    9   10 ar   
    20    9   14 ar   
    21   10   11 ar   
    22   10   81 1    
    23   11   12 ar   
    24   11   71 1    
    25   12   13 ar   
    26   12   82 1    
    27   13   14 ar   
    28   13   15 1    
    29   14   83 1    
    30   15   16 1    
    31   15   84 1    
    32   15   85 1    
    33   16   17 1    
    34   17   18 1    
    35   17   86 1    
    36   17   87 1    
    37   18   19 1    
    38   18   37 1    
    39   18   88 1    
    40   19   20 am   BACKBONE|DICT|INTERRES
    41   19   89 1    
    42   20   21 2    
    43   20   22 1    
    44   22   23 1    
    45   22   24 1    
    46   22   90 1    
    47   23   91 1    
    48   23   92 1    
    49   23   93 1    
    50   24   25 am   BACKBONE|DICT|INTERRES
    51   24   94 1    
    52   25   26 2    
    53   25   27 1    
    54   27   28 1    
    55   27   29 1    
    56   27   95 1    
    57   28   96 1    
    58   28   97 1    
    59   28   98 1    
    60   29   30 am   BACKBONE|DICT|INTERRES
    61   29   99 1    
    62   30   31 2    
    63   30   32 1    
    64   32   33 1    
    65   32   34 1    
    66   32  100 1    
    67   33  101 1    
    68   33  102 1    
    69   33  103 1    
    70   34   35 am   BACKBONE|DICT|INTERRES
    71   34  104 1    
    72   35   36 2    
    73   37   38 2    
    74   37   39 am   BACKBONE|DICT|INTERRES
    75   39   40 1    
    76   39  105 1    
    77   40   41 1    
    78   40   42 1    
    79   40  106 1    
    80   41  107 1    
    81   41  108 1    
    82   41  109 1    
    83   42   43 2    
    84   42   44 am   BACKBONE|DICT|INTERRES
    85   44   45 1    
    86   44  110 1    
    87   45   46 1    
    88   45   47 1    
    89   45  111 1    
    90   46  112 1    
    91   46  113 1    
    92   46  114 1    
    93   47   48 2    
    94   47   49 am   BACKBONE|DICT|INTERRES
    95   49   50 1    
    96   49  115 1    
    97   50   51 1    
    98   50   52 1    
    99   50  116 1    
   100   51  117 1    
   101   51  118 1    
   102   51  119 1    
   103   52   53 2    
   104   52   54 am   BACKBONE|DICT|INTERRES
   105   54   55 1    
   106   54  120 1    
   107   55   56 1    
   108   55   57 1    
   109   55  121 1    
   110   56  122 1    
   111   56  123 1    
   112   56  124 1    
   113   57   58 2    
   114   57   59 am   BACKBONE|DICT|INTERRES
   115   59   60 1    
   116   59  125 1    
   117   60   61 1    
   118   60   62 1    
   119   60  126 1    
   120   61  127 1    
   121   61  128 1    
   122   61  129 1    
   123   62   63 2    
   124   62   64 am   BACKBONE|DICT|INTERRES
   125   64   65 1    
   126   64  130 1    
   127   65   66 1    
   128   65   69 1    
   129   65  131 1    
   130   66   67 am   BACKBONE|DICT|INTERRES
   131   66   68 2    
   132   67  132 1    
   133   67  133 1    
   134   69   70 1    
   135   69  134 1    
   136   69  135 1    
   137   70   71 1    
   138   71  136 1    
   139   71  137 1    
@<TRIPOS>SUBSTRUCTURE
     1 UNK         1 GROUP             0       ****    0 ROOT    
