@<TRIPOS>MOLECULE
3R137
137   139    1
SMALL
USER_CHARGES


@<TRIPOS>ATOM
      1 CA         23.7172   -6.4079   -2.2762 C.3       0 UNK        -0.2020 
      2 C          24.8709   -5.4177   -2.2415 C.2       0 UNK         0.4855 
      3 O          25.2433   -4.8807   -3.2836 O.2       0 UNK        -0.5197 
      4 N          25.4269   -5.1607   -1.0490 N.am      1 UNK        -0.4892 
      5 CA         26.5622   -4.2613   -0.7949 C.3       1 UNK         0.0835 
      6 C6         27.8996   -4.8303   -1.3469 C.3       12 UNK        -0.0855 
      7 S7         29.3108   -4.4236   -0.2683 S.3       12 UNK        -0.2931 
      8 C8         30.6825   -4.3240   -1.4695 C.3       12 UNK         0.0378 
      9 C9         30.8433   -2.9655   -2.1517 C.ar      12 UNK        -0.0802 
     10 C10        31.3383   -2.9111   -3.4580 C.ar      12 UNK        -0.0944 
     11 C11        31.5806   -1.6842   -4.0868 C.ar      12 UNK        -0.0787 
     12 C12        31.3295   -0.4975   -3.3886 C.ar      12 UNK        -0.0862 
     13 C13        30.8348   -0.5321   -2.0797 C.ar      12 UNK        -0.0733 
     14 C14        30.5933   -1.7680   -1.4718 C.ar      12 UNK        -0.0832 
     15 C15        30.6120    0.7520   -1.2834 C.3       12 UNK         0.0240 
     16 S16        29.5455    1.9749   -2.1160 S.3       12 UNK        -0.2522 
     17 C17        28.0597    0.9948   -2.5157 C.3       12 UNK        -0.0967 
     18 CA         27.9407    0.7753   -4.0455 C.3       5 UNK         0.0660 
     19 N          27.4227   -0.5561   -4.3833 N.am      5 UNK        -0.4015 
     20 C          27.4244   -1.0822   -5.6187 C.2       4 UNK         0.4946 
     21 O          27.8285   -0.4845   -6.6151 O.2       4 UNK        -0.5353 
     22 CA         26.8285   -2.4898   -5.7807 C.3       4 UNK         0.0277 
     23 CB         27.8039   -3.5633   -5.2747 C.3       4 UNK        -0.1981 
     24 N          25.5463   -2.6107   -5.0870 N.am      4 UNK        -0.4209 
     25 C          24.4225   -1.9904   -5.4756 C.2       3 UNK         0.4942 
     26 O          24.3187   -1.3536   -6.5235 O.2       3 UNK        -0.5208 
     27 CA         23.2227   -2.0508   -4.5159 C.3       3 UNK         0.0250 
     28 CB         22.3984   -3.3288   -4.7396 C.3       3 UNK        -0.1990 
     29 N          23.6251   -1.9490   -3.1102 N.am      3 UNK        -0.4232 
     30 C          24.1649   -0.8519   -2.5581 C.2       2 UNK         0.4993 
     31 O          24.3430    0.2020   -3.1664 O.2       2 UNK        -0.5286 
     32 CA         24.6168   -0.9522   -1.0919 C.3       2 UNK         0.0209 
     33 CB         23.4663   -0.5758   -0.1451 C.3       2 UNK        -0.1931 
     34 N          25.1340   -2.2766   -0.7354 N.am      2 UNK        -0.4546 
     35 C          26.2507   -2.8156   -1.2465 C.2       1 UNK         0.5154 
     36 O          26.9572   -2.2396   -2.0761 O.2       1 UNK        -0.5181 
     37 C          27.1863    1.9358   -4.7340 C.2       5 UNK         0.5014 
     38 O          27.7892    2.9764   -4.9993 O.2       5 UNK        -0.5248 
     39 N          25.9031    1.7374   -5.0685 N.am      6 UNK        -0.4434 
     40 CA         25.0996    2.6568   -5.8824 C.3       6 UNK         0.0363 
     41 CB         23.6447    2.1629   -5.9227 C.3       6 UNK        -0.1936 
     42 C          25.6393    2.8707   -7.3132 C.2       6 UNK         0.5081 
     43 O          25.2780    3.8659   -7.9422 O.2       6 UNK        -0.5248 
     44 N          26.4998    1.9644   -7.7953 N.am      7 UNK        -0.4718 
     45 CA         27.2175    2.0617   -9.0629 C.3       7 UNK         0.0273 
     46 CB         26.5732    1.1027  -10.0819 C.3       7 UNK        -0.1935 
     47 C          28.7092    1.7710   -8.8245 C.2       7 UNK         0.5018 
     48 O          29.3003    0.9790   -9.5564 O.2       7 UNK        -0.5186 
     49 N          29.2944    2.4071   -7.7954 N.am      8 UNK        -0.4240 
     50 CA         30.6702    2.1855   -7.3266 C.3       8 UNK         0.0235 
     51 CB         30.9372    3.0248   -6.0657 C.3       8 UNK        -0.2000 
     52 C          31.7861    2.4294   -8.3599 C.2       8 UNK         0.4941 
     53 O          32.8776    1.8904   -8.1744 O.2       8 UNK        -0.5273 
     54 N          31.5161    3.2045   -9.4216 N.am      9 UNK        -0.4262 
     55 CA         32.4167    3.4524  -10.5542 C.3       9 UNK         0.0264 
     56 CB         31.7517    4.4522  -11.5164 C.3       9 UNK        -0.1955 
     57 C          32.7897    2.1403  -11.2718 C.2       9 UNK         0.5031 
     58 O          31.9837    1.6146  -12.0424 O.2       9 UNK        -0.5390 
     59 N          33.9700    1.6008  -10.9275 N.am      10 UNK        -0.4204 
     60 CA         34.4790    0.2616  -11.2680 C.3       10 UNK         0.0237 
     61 CB         34.7308    0.1361  -12.7859 C.3       10 UNK        -0.1985 
     62 C          33.6111   -0.8948  -10.7178 C.2       10 UNK         0.4970 
     63 O          33.7465   -2.0278  -11.1822 O.2       10 UNK        -0.4914 
     64 N          32.7423   -0.5888   -9.7440 N.am      11 UNK        -0.4285 
     65 CA         31.7187   -1.4635   -9.1548 C.3       11 UNK         0.1007 
     66 C          30.6987   -2.0690  -10.1725 C.2       11 UNK         0.5703 
     67 N          30.4674   -1.4375  -11.3185 N.am      11 UNK        -0.7361 
     68 O          30.1035   -3.1162   -9.9282 O.2       11 UNK        -0.4986 
     69 C69        32.3376   -2.4940   -8.1678 C.3       12 UNK        -0.0947 
     70 S70        31.3097   -2.7072   -6.6763 S.3       12 UNK        -0.2240 
     71 C71        32.1843   -1.6375   -5.4877 C.3       12 UNK         0.0194 
     72 H72        23.9349   -7.2097   -2.9813 H         1 UNK         0.0906 
     73 H73        23.5337   -6.8566   -1.3002 H         1 UNK         0.0906 
     74 H74        22.8034   -5.9100   -2.5989 H         1 UNK         0.0906 
     75 H75        25.0608   -5.6292   -0.2308 H         1 UNK         0.3140 
     76 H76        26.6426   -4.2160    0.2927 H         1 UNK         0.1085 
     77 H77        28.0895   -4.5111   -2.3710 H         1 UNK         0.0836 
     78 H78        27.8531   -5.9196   -1.3913 H         1 UNK         0.0836 
     79 H79        30.5602   -5.1148   -2.2117 H         1 UNK         0.0731 
     80 H80        31.6114   -4.5436   -0.9418 H         1 UNK         0.0731 
     81 H81        31.5615   -3.8299   -3.9830 H         1 UNK         0.1312 
     82 H82        31.5355    0.4568   -3.8539 H         1 UNK         0.1406 
     83 H83        30.2354   -1.7973   -0.4521 H         1 UNK         0.1631 
     84 H84        31.5805    1.2127   -1.0851 H         1 UNK         0.0717 
     85 H85        30.1752    0.5305   -0.3083 H         1 UNK         0.0717 
     86 H86        28.1295    0.0431   -1.9895 H         1 UNK         0.0934 
     87 H87        27.1756    1.4862   -2.1043 H         1 UNK         0.0934 
     88 H88        28.9462    0.7847   -4.4711 H         1 UNK         0.0739 
     89 H89        27.1165   -1.1375   -3.6059 H         1 UNK         0.3093 
     90 H90        26.6524   -2.6665   -6.8441 H         1 UNK         0.0818 
     91 H91        28.6651   -3.6391   -5.9369 H         1 UNK         0.0819 
     92 H92        28.1832   -3.3288   -4.2807 H         1 UNK         0.0819 
     93 H93        27.3377   -4.5479   -5.2369 H         1 UNK         0.0819 
     94 H94        25.5271   -3.1864   -4.2491 H         1 UNK         0.3041 
     95 H95        22.5822   -1.1941   -4.7380 H         1 UNK         0.0784 
     96 H96        22.0334   -3.3774   -5.7664 H         1 UNK         0.0793 
     97 H97        22.9863   -4.2295   -4.5643 H         1 UNK         0.0793 
     98 H98        21.5271   -3.3610   -4.0854 H         1 UNK         0.0793 
     99 H99        23.5452   -2.7824   -2.5471 H         1 UNK         0.3024 
    100 H100       25.4245   -0.2296   -0.9534 H         1 UNK         0.1171 
    101 H101       23.7975   -0.5546    0.8933 H         1 UNK         0.0786 
    102 H102       23.0783    0.4167   -0.3794 H         1 UNK         0.0786 
    103 H103       22.6339   -1.2768   -0.2190 H         1 UNK         0.0786 
    104 H104       24.5917   -2.8190   -0.0780 H         1 UNK         0.2977 
    105 H105       25.4346    0.9058   -4.7223 H         1 UNK         0.3127 
    106 H106       25.1145    3.6289   -5.3856 H         1 UNK         0.0770 
    107 H107       23.5633    1.1917   -6.4106 H         1 UNK         0.0814 
    108 H108       23.0115    2.8583   -6.4751 H         1 UNK         0.0814 
    109 H109       23.2267    2.0718   -4.9200 H         1 UNK         0.0814 
    110 H110       26.7678    1.1762   -7.2113 H         1 UNK         0.2983 
    111 H111       27.1585    3.0775   -9.4595 H         1 UNK         0.0947 
    112 H112       27.0707    1.1669  -11.0505 H         1 UNK         0.0806 
    113 H113       25.5215    1.3413  -10.2408 H         1 UNK         0.0806 
    114 H114       26.6359    0.0658   -9.7485 H         1 UNK         0.0806 
    115 H115       28.7178    3.0047   -7.2168 H         1 UNK         0.3000 
    116 H116       30.7361    1.1328   -7.0446 H         1 UNK         0.0850 
    117 H117       31.9772    2.9410   -5.7464 H         1 UNK         0.0810 
    118 H118       30.3298    2.6903   -5.2268 H         1 UNK         0.0810 
    119 H119       30.7316    4.0827   -6.2324 H         1 UNK         0.0810 
    120 H120       30.5821    3.5779   -9.5013 H         1 UNK         0.3040 
    121 H121       33.3276    3.9134  -10.1667 H         1 UNK         0.0766 
    122 H122       31.5590    5.4071  -11.0271 H         1 UNK         0.0812 
    123 H123       30.8035    4.0747  -11.9018 H         1 UNK         0.0812 
    124 H124       32.3947    4.6526  -12.3745 H         1 UNK         0.0812 
    125 H125       34.5186    2.0997  -10.2388 H         1 UNK         0.3205 
    126 H126       35.4437    0.1710  -10.7666 H         1 UNK         0.0754 
    127 H127       35.2516   -0.7928  -13.0218 H         1 UNK         0.0769 
    128 H128       35.3495    0.9542  -13.1547 H         1 UNK         0.0769 
    129 H129       33.7994    0.1373  -13.3531 H         1 UNK         0.0769 
    130 H130       32.7493    0.3608   -9.3875 H         1 UNK         0.2981 
    131 H131       31.1146   -0.7727   -8.5672 H         1 UNK         0.0541 
    132 H132       30.9032   -0.5447  -11.5030 H         1 UNK         0.3459 
    133 H133       29.8045   -1.8227  -11.9710 H         1 UNK         0.3459 
    134 H134       32.4843   -3.4637   -8.6463 H         1 UNK         0.0612 
    135 H135       33.3319   -2.1768   -7.8496 H         1 UNK         0.0612 
    136 H136       33.2273   -1.9501   -5.4243 H         1 UNK         0.0624 
    137 H137       32.1850   -0.6173   -5.8747 H         1 UNK         0.0624 
@<TRIPOS>BOND
     1    1    2 1    
     2    1   72 1    
     3    1   73 1    
     4    1   74 1    
     5    2    3 2    
     6    2    4 am   BACKBONE|DICT|INTERRES
     7    4    5 1    
     8    4   75 1    
     9    5    6 1    
    10    5   35 1    
    11    5   76 1    
    12    6    7 1    
    13    6   77 1    
    14    6   78 1    
    15    7    8 1    
    16    8    9 1    
    17    8   79 1    
    18    8   80 1    
    19    9   10 ar   
    20    9   14 ar   
    21   10   11 ar   
    22   10   81 1    
    23   11   12 ar   
    24   11   71 1    
    25   12   13 ar   
    26   12   82 1    
    27   13   14 ar   
    28   13   15 1    
    29   14   83 1    
    30   15   16 1    
    31   15   84 1    
    32   15   85 1    
    33   16   17 1    
    34   17   18 1    
    35   17   86 1    
    36   17   87 1    
    37   18   19 1    
    38   18   37 1    
    39   18   88 1    
    40   19   20 am   BACKBONE|DICT|INTERRES
    41   19   89 1    
    42   20   21 2    
    43   20   22 1    
    44   22   23 1    
    45   22   24 1    
    46   22   90 1    
    47   23   91 1    
    48   23   92 1    
    49   23   93 1    
    50   24   25 am   BACKBONE|DICT|INTERRES
    51   24   94 1    
    52   25   26 2    
    53   25   27 1    
    54   27   28 1    
    55   27   29 1    
    56   27   95 1    
    57   28   96 1    
    58   28   97 1    
    59   28   98 1    
    60   29   30 am   BACKBONE|DICT|INTERRES
    61   29   99 1    
    62   30   31 2    
    63   30   32 1    
    64   32   33 1    
    65   32   34 1    
    66   32  100 1    
    67   33  101 1    
    68   33  102 1    
    69   33  103 1    
    70   34   35 am   BACKBONE|DICT|INTERRES
    71   34  104 1    
    72   35   36 2    
    73   37   38 2    
    74   37   39 am   BACKBONE|DICT|INTERRES
    75   39   40 1    
    76   39  105 1    
    77   40   41 1    
    78   40   42 1    
    79   40  106 1    
    80   41  107 1    
    81   41  108 1    
    82   41  109 1    
    83   42   43 2    
    84   42   44 am   BACKBONE|DICT|INTERRES
    85   44   45 1    
    86   44  110 1    
    87   45   46 1    
    88   45   47 1    
    89   45  111 1    
    90   46  112 1    
    91   46  113 1    
    92   46  114 1    
    93   47   48 2    
    94   47   49 am   BACKBONE|DICT|INTERRES
    95   49   50 1    
    96   49  115 1    
    97   50   51 1    
    98   50   52 1    
    99   50  116 1    
   100   51  117 1    
   101   51  118 1    
   102   51  119 1    
   103   52   53 2    
   104   52   54 am   BACKBONE|DICT|INTERRES
   105   54   55 1    
   106   54  120 1    
   107   55   56 1    
   108   55   57 1    
   109   55  121 1    
   110   56  122 1    
   111   56  123 1    
   112   56  124 1    
   113   57   58 2    
   114   57   59 am   BACKBONE|DICT|INTERRES
   115   59   60 1    
   116   59  125 1    
   117   60   61 1    
   118   60   62 1    
   119   60  126 1    
   120   61  127 1    
   121   61  128 1    
   122   61  129 1    
   123   62   63 2    
   124   62   64 am   BACKBONE|DICT|INTERRES
   125   64   65 1    
   126   64  130 1    
   127   65   66 1    
   128   65   69 1    
   129   65  131 1    
   130   66   67 am   BACKBONE|DICT|INTERRES
   131   66   68 2    
   132   67  132 1    
   133   67  133 1    
   134   69   70 1    
   135   69  134 1    
   136   69  135 1    
   137   70   71 1    
   138   71  136 1    
   139   71  137 1    
@<TRIPOS>SUBSTRUCTURE
     1 UNK         1 GROUP             0       ****    0 ROOT    
