@<TRIPOS>MOLECULE
3R137
137   139    1
SMALL
USER_CHARGES


@<TRIPOS>ATOM
      1 CA         23.5942   -3.5451    2.6108 C.3       0 UNK        -0.2020 
      2 C          24.4930   -2.8952    1.5698 C.2       0 UNK         0.4855 
      3 O          24.1847   -1.8031    1.0922 O.2       0 UNK        -0.5197 
      4 N          25.5936   -3.5623    1.2061 N.am      1 UNK        -0.4892 
      5 CA         26.5718   -3.1054    0.2197 C.3       1 UNK         0.0835 
      6 C6         27.9111   -2.7338    0.9083 C.3       12 UNK        -0.0855 
      7 S7         29.0538   -1.8599   -0.2158 S.3       12 UNK        -0.2931 
      8 C8         30.3544   -3.1119   -0.4621 C.3       12 UNK         0.0378 
      9 C9         30.8365   -3.1150   -1.9027 C.ar      12 UNK        -0.0802 
     10 C10        31.8887   -2.2823   -2.2968 C.ar      12 UNK        -0.0944 
     11 C11        32.3221   -2.2751   -3.6255 C.ar      12 UNK        -0.0787 
     12 C12        31.7101   -3.1196   -4.5549 C.ar      12 UNK        -0.0862 
     13 C13        30.6359   -3.9318   -4.1797 C.ar      12 UNK        -0.0733 
     14 C14        30.2127   -3.9369   -2.8479 C.ar      12 UNK        -0.0832 
     15 C15        29.8979   -4.7524   -5.2311 C.3       12 UNK         0.0240 
     16 S16        28.3049   -3.9927   -5.7084 S.3       12 UNK        -0.2522 
     17 C17        28.7814   -2.2450   -5.9263 C.3       12 UNK        -0.0967 
     18 CA         27.9152   -1.4644   -6.9382 C.3       5 UNK         0.0660 
     19 N          26.4938   -1.4466   -6.5787 N.am      5 UNK        -0.4015 
     20 C          25.5249   -0.9491   -7.3650 C.2       4 UNK         0.4946 
     21 O          25.7249   -0.5034   -8.4942 O.2       4 UNK        -0.5353 
     22 CA         24.0985   -0.8829   -6.7890 C.3       4 UNK         0.0277 
     23 CB         23.3338   -2.1778   -7.1053 C.3       4 UNK        -0.1981 
     24 N          24.0584   -0.6353   -5.3474 N.am      4 UNK        -0.4209 
     25 C          24.6303    0.3990   -4.7129 C.2       3 UNK         0.4942 
     26 O          25.1724    1.3392   -5.2941 O.2       3 UNK        -0.5208 
     27 CA         24.6559    0.3505   -3.1728 C.3       3 UNK         0.0250 
     28 CB         23.6160    1.3195   -2.5890 C.3       3 UNK        -0.1990 
     29 N          24.4433   -0.9895   -2.6064 N.am      3 UNK        -0.4232 
     30 C          25.2333   -2.0527   -2.8154 C.2       2 UNK         0.4993 
     31 O          26.2456   -2.0290   -3.5178 O.2       2 UNK        -0.5286 
     32 CA         24.7555   -3.3768   -2.2009 C.3       2 UNK         0.0209 
     33 CB         23.8169   -4.0929   -3.1868 C.3       2 UNK        -0.1931 
     34 N          25.8644   -4.2795   -1.8811 N.am      2 UNK        -0.4546 
     35 C          26.7092   -4.2226   -0.8400 C.2       1 UNK         0.5154 
     36 O          27.5561   -5.0994   -0.6721 O.2       1 UNK        -0.5181 
     37 C          28.4807   -0.0387   -7.0873 C.2       5 UNK         0.5014 
     38 O          29.2031    0.2313   -8.0476 O.2       5 UNK        -0.5248 
     39 N          28.1350    0.8468   -6.1417 N.am      6 UNK        -0.4434 
     40 CA         28.5395    2.2521   -6.1416 C.3       6 UNK         0.0363 
     41 CB         28.2771    2.8730   -4.7605 C.3       6 UNK        -0.1936 
     42 C          27.8375    3.0488   -7.2505 C.2       6 UNK         0.5081 
     43 O          28.4861    3.8662   -7.9017 O.2       6 UNK        -0.5248 
     44 N          26.5475    2.7633   -7.4831 N.am      7 UNK        -0.4718 
     45 CA         25.7507    3.3369   -8.5733 C.3       7 UNK         0.0273 
     46 CB         24.2814    2.9162   -8.4172 C.3       7 UNK        -0.1935 
     47 C          26.2819    2.9580   -9.9680 C.2       7 UNK         0.5018 
     48 O          26.3159    3.8116  -10.8547 O.2       7 UNK        -0.5186 
     49 N          26.7215    1.7012  -10.1250 N.am      8 UNK        -0.4240 
     50 CA         27.3898    1.1912  -11.3262 C.3       8 UNK         0.0235 
     51 CB         27.3215   -0.3455  -11.3162 C.3       8 UNK        -0.2000 
     52 C          28.8542    1.6520  -11.4656 C.2       8 UNK         0.4941 
     53 O          29.4338    1.4586  -12.5350 O.2       8 UNK        -0.5273 
     54 N          29.4304    2.2169  -10.3924 N.am      9 UNK        -0.4262 
     55 CA         30.8356    2.6084  -10.2274 C.3       9 UNK         0.0264 
     56 CB         31.2045    3.7711  -11.1728 C.3       9 UNK        -0.1955 
     57 C          31.8029    1.4118  -10.3313 C.2       9 UNK         0.5031 
     58 O          32.9100    1.5531  -10.8557 O.2       9 UNK        -0.5390 
     59 N          31.3761    0.2519   -9.8104 N.am      10 UNK        -0.4204 
     60 CA         32.1181   -1.0123   -9.8402 C.3       10 UNK         0.0237 
     61 CB         31.1791   -2.1577   -9.4277 C.3       10 UNK        -0.1985 
     62 C          33.3810   -1.0072   -8.9613 C.2       10 UNK         0.4970 
     63 O          34.2844   -1.8078   -9.2050 O.2       10 UNK        -0.4914 
     64 N          33.4243   -0.1113   -7.9674 N.am      11 UNK        -0.4285 
     65 CA         34.5690    0.1008   -7.0695 C.3       11 UNK         0.1007 
     66 C          35.7834    0.8156   -7.7331 C.2       11 UNK         0.5703 
     67 N          35.6629    1.3643   -8.9376 N.am      11 UNK        -0.7361 
     68 O          36.8600    0.8669   -7.1430 O.2       11 UNK        -0.4986 
     69 C69        34.1551    0.8175   -5.7538 C.3       12 UNK        -0.0947 
     70 S70        32.6841    0.0926   -4.9561 S.3       12 UNK        -0.2240 
     71 C71        33.4157   -1.3249   -4.0823 C.3       12 UNK         0.0194 
     72 H72        22.6010   -3.7141    2.1959 H         1 UNK         0.0906 
     73 H73        23.9877   -4.5030    2.9503 H         1 UNK         0.0906 
     74 H74        23.4945   -2.8936    3.4785 H         1 UNK         0.0906 
     75 H75        25.7763   -4.4778    1.5962 H         1 UNK         0.3140 
     76 H76        26.2198   -2.1976   -0.2690 H         1 UNK         0.1085 
     77 H77        28.3895   -3.6065    1.3564 H         1 UNK         0.0836 
     78 H78        27.7114   -2.0561    1.7400 H         1 UNK         0.0836 
     79 H79        31.1833   -2.9060    0.2169 H         1 UNK         0.0731 
     80 H80        29.9918   -4.1071   -0.2030 H         1 UNK         0.0731 
     81 H81        32.3537   -1.6254   -1.5743 H         1 UNK         0.1312 
     82 H82        32.0370   -3.0996   -5.5858 H         1 UNK         0.1406 
     83 H83        29.3765   -4.5573   -2.5550 H         1 UNK         0.1631 
     84 H84        29.7135   -5.7581   -4.8508 H         1 UNK         0.0717 
     85 H85        30.5133   -4.8712   -6.1243 H         1 UNK         0.0717 
     86 H86        28.7578   -1.7700   -4.9425 H         1 UNK         0.0934 
     87 H87        29.8204   -2.2136   -6.2549 H         1 UNK         0.0934 
     88 H88        28.0018   -1.9535   -7.9109 H         1 UNK         0.0739 
     89 H89        26.2651   -1.7847   -5.6499 H         1 UNK         0.3093 
     90 H90        23.5830   -0.0533   -7.2753 H         1 UNK         0.0818 
     91 H91        22.2935   -2.1144   -6.7854 H         1 UNK         0.0819 
     92 H92        23.3286   -2.3740   -8.1786 H         1 UNK         0.0819 
     93 H93        23.7843   -3.0439   -6.6183 H         1 UNK         0.0819 
     94 H94        23.6242   -1.3478   -4.7808 H         1 UNK         0.3041 
     95 H95        25.6480    0.6842   -2.8613 H         1 UNK         0.0784 
     96 H96        23.7693    2.3312   -2.9680 H         1 UNK         0.0793 
     97 H97        22.5982    1.0253   -2.8485 H         1 UNK         0.0793 
     98 H98        23.6858    1.3698   -1.5021 H         1 UNK         0.0793 
     99 H99        23.6278   -1.0967   -2.0188 H         1 UNK         0.3024 
    100 H100       24.1909   -3.1677   -1.2918 H         1 UNK         0.1171 
    101 H101       22.9460   -3.4794   -3.4218 H         1 UNK         0.0786 
    102 H102       23.4438   -5.0289   -2.7700 H         1 UNK         0.0786 
    103 H103       24.3182   -4.3228   -4.1284 H         1 UNK         0.0786 
    104 H104       26.0197   -5.0135   -2.5555 H         1 UNK         0.2977 
    105 H105       27.4913    0.5605   -5.4178 H         1 UNK         0.3127 
    106 H106       29.6146    2.2931   -6.3313 H         1 UNK         0.0770 
    107 H107       27.2173    2.8672   -4.5043 H         1 UNK         0.0814 
    108 H108       28.8156    2.3393   -3.9773 H         1 UNK         0.0814 
    109 H109       28.6115    3.9109   -4.7332 H         1 UNK         0.0814 
    110 H110       26.0768    2.1158   -6.8562 H         1 UNK         0.2983 
    111 H111       25.8062    4.4240   -8.4831 H         1 UNK         0.0947 
    112 H112       23.6551    3.4099   -9.1614 H         1 UNK         0.0806 
    113 H113       23.8918    3.1831   -7.4345 H         1 UNK         0.0806 
    114 H114       24.1551    1.8420   -8.5488 H         1 UNK         0.0806 
    115 H115       26.5775    1.0348   -9.3703 H         1 UNK         0.3000 
    116 H116       26.8490    1.5534  -12.2031 H         1 UNK         0.0850 
    117 H117       27.7782   -0.7665  -12.2129 H         1 UNK         0.0810 
    118 H118       26.2899   -0.6964  -11.2831 H         1 UNK         0.0810 
    119 H119       27.8445   -0.7645  -10.4552 H         1 UNK         0.0810 
    120 H120       28.8582    2.3289   -9.5650 H         1 UNK         0.3040 
    121 H121       30.9245    2.9775   -9.2046 H         1 UNK         0.0766 
    122 H122       30.5086    4.6033  -11.0663 H         1 UNK         0.0812 
    123 H123       31.2015    3.4612  -12.2181 H         1 UNK         0.0812 
    124 H124       32.2018    4.1530  -10.9511 H         1 UNK         0.0812 
    125 H125       30.4808    0.2430   -9.3202 H         1 UNK         0.3205 
    126 H126       32.4381   -1.1853  -10.8698 H         1 UNK         0.0754 
    127 H127       31.6816   -3.1228   -9.5051 H         1 UNK         0.0769 
    128 H128       30.2967   -2.1989  -10.0667 H         1 UNK         0.0769 
    129 H129       30.8421   -2.0480   -8.3973 H         1 UNK         0.0769 
    130 H130       32.6308    0.4948   -7.8268 H         1 UNK         0.2981 
    131 H131       34.9354   -0.8888   -6.7917 H         1 UNK         0.0541 
    132 H132       34.7878    1.3250   -9.4415 H         1 UNK         0.3459 
    133 H133       36.4608    1.8191   -9.3522 H         1 UNK         0.3459 
    134 H134       33.9313    1.8672   -5.9525 H         1 UNK         0.0612 
    135 H135       34.9782    0.8129   -5.0369 H         1 UNK         0.0612 
    136 H136       34.0036   -0.9669   -3.2359 H         1 UNK         0.0624 
    137 H137       34.1035   -1.8548   -4.7423 H         1 UNK         0.0624 
@<TRIPOS>BOND
     1    1    2 1    
     2    1   72 1    
     3    1   73 1    
     4    1   74 1    
     5    2    3 2    
     6    2    4 am   BACKBONE|DICT|INTERRES
     7    4    5 1    
     8    4   75 1    
     9    5    6 1    
    10    5   35 1    
    11    5   76 1    
    12    6    7 1    
    13    6   77 1    
    14    6   78 1    
    15    7    8 1    
    16    8    9 1    
    17    8   79 1    
    18    8   80 1    
    19    9   10 ar   
    20    9   14 ar   
    21   10   11 ar   
    22   10   81 1    
    23   11   12 ar   
    24   11   71 1    
    25   12   13 ar   
    26   12   82 1    
    27   13   14 ar   
    28   13   15 1    
    29   14   83 1    
    30   15   16 1    
    31   15   84 1    
    32   15   85 1    
    33   16   17 1    
    34   17   18 1    
    35   17   86 1    
    36   17   87 1    
    37   18   19 1    
    38   18   37 1    
    39   18   88 1    
    40   19   20 am   BACKBONE|DICT|INTERRES
    41   19   89 1    
    42   20   21 2    
    43   20   22 1    
    44   22   23 1    
    45   22   24 1    
    46   22   90 1    
    47   23   91 1    
    48   23   92 1    
    49   23   93 1    
    50   24   25 am   BACKBONE|DICT|INTERRES
    51   24   94 1    
    52   25   26 2    
    53   25   27 1    
    54   27   28 1    
    55   27   29 1    
    56   27   95 1    
    57   28   96 1    
    58   28   97 1    
    59   28   98 1    
    60   29   30 am   BACKBONE|DICT|INTERRES
    61   29   99 1    
    62   30   31 2    
    63   30   32 1    
    64   32   33 1    
    65   32   34 1    
    66   32  100 1    
    67   33  101 1    
    68   33  102 1    
    69   33  103 1    
    70   34   35 am   BACKBONE|DICT|INTERRES
    71   34  104 1    
    72   35   36 2    
    73   37   38 2    
    74   37   39 am   BACKBONE|DICT|INTERRES
    75   39   40 1    
    76   39  105 1    
    77   40   41 1    
    78   40   42 1    
    79   40  106 1    
    80   41  107 1    
    81   41  108 1    
    82   41  109 1    
    83   42   43 2    
    84   42   44 am   BACKBONE|DICT|INTERRES
    85   44   45 1    
    86   44  110 1    
    87   45   46 1    
    88   45   47 1    
    89   45  111 1    
    90   46  112 1    
    91   46  113 1    
    92   46  114 1    
    93   47   48 2    
    94   47   49 am   BACKBONE|DICT|INTERRES
    95   49   50 1    
    96   49  115 1    
    97   50   51 1    
    98   50   52 1    
    99   50  116 1    
   100   51  117 1    
   101   51  118 1    
   102   51  119 1    
   103   52   53 2    
   104   52   54 am   BACKBONE|DICT|INTERRES
   105   54   55 1    
   106   54  120 1    
   107   55   56 1    
   108   55   57 1    
   109   55  121 1    
   110   56  122 1    
   111   56  123 1    
   112   56  124 1    
   113   57   58 2    
   114   57   59 am   BACKBONE|DICT|INTERRES
   115   59   60 1    
   116   59  125 1    
   117   60   61 1    
   118   60   62 1    
   119   60  126 1    
   120   61  127 1    
   121   61  128 1    
   122   61  129 1    
   123   62   63 2    
   124   62   64 am   BACKBONE|DICT|INTERRES
   125   64   65 1    
   126   64  130 1    
   127   65   66 1    
   128   65   69 1    
   129   65  131 1    
   130   66   67 am   BACKBONE|DICT|INTERRES
   131   66   68 2    
   132   67  132 1    
   133   67  133 1    
   134   69   70 1    
   135   69  134 1    
   136   69  135 1    
   137   70   71 1    
   138   71  136 1    
   139   71  137 1    
@<TRIPOS>SUBSTRUCTURE
     1 UNK         1 GROUP             0       ****    0 ROOT    
