@<TRIPOS>MOLECULE
3R137
137   139    1
SMALL
USER_CHARGES


@<TRIPOS>ATOM
      1 CA         25.0314   -2.4770   -8.7358 C.3       0 UNK        -0.2020 
      2 C          24.8707   -3.3750   -7.5207 C.2       0 UNK         0.4855 
      3 O          23.8512   -4.0543   -7.3969 O.2       0 UNK        -0.5197 
      4 N          25.8681   -3.3909   -6.6270 N.am      1 UNK        -0.4892 
      5 CA         25.8349   -4.1460   -5.3707 C.3       1 UNK         0.0835 
      6 C6         27.2301   -4.2674   -4.7166 C.3       12 UNK        -0.0855 
      7 S7         28.4724   -5.0758   -5.7743 S.3       12 UNK        -0.2931 
      8 C8         29.7602   -5.4643   -4.5444 C.3       12 UNK         0.0378 
      9 C9         30.4510   -4.2121   -4.0181 C.ar      12 UNK        -0.0802 
     10 C10        31.5973   -3.7234   -4.6524 C.ar      12 UNK        -0.0944 
     11 C11        32.2538   -2.5901   -4.1623 C.ar      12 UNK        -0.0787 
     12 C12        31.7421   -1.9312   -3.0400 C.ar      12 UNK        -0.0862 
     13 C13        30.5936   -2.4067   -2.3976 C.ar      12 UNK        -0.0733 
     14 C14        29.9619   -3.5556   -2.8832 C.ar      12 UNK        -0.0832 
     15 C15        30.0554   -1.6970   -1.1599 C.3       12 UNK         0.0240 
     16 S16        28.4143   -0.9442   -1.4241 S.3       12 UNK        -0.2522 
     17 C17        28.7445    0.2327   -2.7780 C.3       12 UNK        -0.0967 
     18 CA         27.9029   -0.1185   -4.0344 C.3       5 UNK         0.0660 
     19 N          26.4604    0.1187   -3.8771 N.am      5 UNK        -0.4015 
     20 C          25.8486    1.2945   -3.6683 C.2       4 UNK         0.4946 
     21 O          26.4325    2.3762   -3.5799 O.2       4 UNK        -0.5353 
     22 CA         24.3207    1.2584   -3.5330 C.3       4 UNK         0.0277 
     23 CB         23.6516    1.0316   -4.9004 C.3       4 UNK        -0.1981 
     24 N          23.8767    0.2406   -2.5799 N.am      4 UNK        -0.4209 
     25 C          23.9921    0.3467   -1.2457 C.2       3 UNK         0.4942 
     26 O          24.4902    1.3225   -0.6832 O.2       3 UNK        -0.5208 
     27 CA         23.4285   -0.7961   -0.3783 C.3       3 UNK         0.0250 
     28 CB         22.2369   -0.3002    0.4596 C.3       3 UNK        -0.1990 
     29 N          22.9943   -1.9440   -1.1762 N.am      3 UNK        -0.4232 
     30 C          23.7798   -2.9701   -1.5244 C.2       2 UNK         0.4993 
     31 O          24.9239   -3.1334   -1.0955 O.2       2 UNK        -0.5286 
     32 CA         23.2047   -3.9791   -2.5406 C.3       2 UNK         0.0209 
     33 CB         21.8803   -3.5297   -3.2024 C.3       2 UNK        -0.1931 
     34 N          24.1818   -4.3346   -3.5775 N.am      2 UNK        -0.4546 
     35 C          24.8545   -3.4927   -4.3773 C.2       1 UNK         0.5154 
     36 O          24.7620   -2.2600   -4.3329 O.2       1 UNK        -0.5181 
     37 C          28.4751    0.5235   -5.3113 C.2       5 UNK         0.5014 
     38 O          28.8265   -0.2013   -6.2399 O.2       5 UNK        -0.5248 
     39 N          28.5403    1.8613   -5.3430 N.am      6 UNK        -0.4434 
     40 CA         29.1736    2.6907   -6.3750 C.3       6 UNK         0.0363 
     41 CB         29.0702    4.1658   -5.9564 C.3       6 UNK        -0.1936 
     42 C          28.6375    2.5018   -7.8041 C.2       6 UNK         0.5081 
     43 O          29.3424    2.8284   -8.7597 O.2       6 UNK        -0.5248 
     44 N          27.4150    1.9699   -7.9253 N.am      7 UNK        -0.4718 
     45 CA         26.7905    1.5711   -9.1860 C.3       7 UNK         0.0273 
     46 CB         25.3089    1.2550   -8.9245 C.3       7 UNK        -0.1935 
     47 C          27.4929    0.3856   -9.8789 C.2       7 UNK         0.5018 
     48 O          27.3399    0.2372  -11.0924 O.2       7 UNK        -0.5186 
     49 N          28.2411   -0.4290   -9.1201 N.am      8 UNK        -0.4240 
     50 CA         29.0773   -1.5084   -9.6392 C.3       8 UNK         0.0235 
     51 CB         28.9427   -2.7450   -8.7346 C.3       8 UNK        -0.2000 
     52 C          30.5354   -1.0399   -9.6620 C.2       8 UNK         0.4941 
     53 O          30.9761   -0.3902   -8.7127 O.2       8 UNK        -0.5273 
     54 N          31.2530   -1.3903  -10.7409 N.am      9 UNK        -0.4262 
     55 CA         32.7109   -1.2948  -10.9413 C.3       9 UNK         0.0264 
     56 CB         33.4031   -2.4276  -10.1549 C.3       9 UNK        -0.1955 
     57 C          33.3709    0.0767  -10.6621 C.2       9 UNK         0.5031 
     58 O          34.5948    0.1347  -10.5264 O.2       9 UNK        -0.5390 
     59 N          32.5645    1.1456  -10.5813 N.am      10 UNK        -0.4204 
     60 CA         32.9194    2.4975  -10.1379 C.3       10 UNK         0.0237 
     61 CB         33.8342    3.1956  -11.1686 C.3       10 UNK        -0.1985 
     62 C          33.4846    2.5269   -8.7002 C.2       10 UNK         0.4970 
     63 O          34.4374    3.2627   -8.4358 O.2       10 UNK        -0.4914 
     64 N          32.8858    1.7377   -7.7944 N.am      11 UNK        -0.4285 
     65 CA         33.2563    1.6448   -6.3680 C.3       11 UNK         0.1007 
     66 C          33.0432    2.9390   -5.5217 C.2       11 UNK         0.5703 
     67 N          32.4643    4.0096   -6.0517 N.am      11 UNK        -0.7361 
     68 O          33.4266    2.9765   -4.3547 O.2       11 UNK        -0.4986 
     69 C69        32.5883    0.4177   -5.6889 C.3       12 UNK        -0.0947 
     70 S70        33.2135   -1.1633   -6.3458 S.3       12 UNK        -0.2240 
     71 C71        33.5373   -2.1060   -4.8248 C.3       12 UNK         0.0194 
     72 H72        24.1504   -1.8454   -8.8572 H         1 UNK         0.0906 
     73 H73        25.9012   -1.8303   -8.6422 H         1 UNK         0.0906 
     74 H74        25.1479   -3.0788   -9.6374 H         1 UNK         0.0906 
     75 H75        26.6857   -2.8161   -6.7665 H         1 UNK         0.3140 
     76 H76        25.4755   -5.1522   -5.5977 H         1 UNK         0.1085 
     77 H77        27.1573   -4.8332   -3.7862 H         1 UNK         0.0836 
     78 H78        27.6096   -3.2859   -4.4459 H         1 UNK         0.0836 
     79 H79        29.3241   -6.0325   -3.7215 H         1 UNK         0.0731 
     80 H80        30.4958   -6.1239   -5.0070 H         1 UNK         0.0731 
     81 H81        31.9868   -4.2309   -5.5245 H         1 UNK         0.1312 
     82 H82        32.2478   -1.0551   -2.6579 H         1 UNK         0.1406 
     83 H83        29.0824   -3.9313   -2.3781 H         1 UNK         0.1631 
     84 H84        30.7472   -0.9232   -0.8236 H         1 UNK         0.0717 
     85 H85        29.9830   -2.4154   -0.3422 H         1 UNK         0.0717 
     86 H86        29.8117    0.2216   -3.0088 H         1 UNK         0.0934 
     87 H87        28.5324    1.2423   -2.4224 H         1 UNK         0.0934 
     88 H88        28.0061   -1.1893   -4.1922 H         1 UNK         0.0739 
     89 H89        25.8734   -0.7080   -3.9598 H         1 UNK         0.3093 
     90 H90        23.9982    2.2342   -3.1620 H         1 UNK         0.0818 
     91 H91        22.5654    1.0840   -4.8219 H         1 UNK         0.0819 
     92 H92        23.9594    1.7955   -5.6156 H         1 UNK         0.0819 
     93 H93        23.9084    0.0629   -5.3307 H         1 UNK         0.0819 
     94 H94        23.5180   -0.6194   -2.9697 H         1 UNK         0.3041 
     95 H95        24.2206   -1.1041    0.3074 H         1 UNK         0.0784 
     96 H96        22.5290    0.5309    1.1031 H         1 UNK         0.0793 
     97 H97        21.4165    0.0479   -0.1689 H         1 UNK         0.0793 
     98 H98        21.8536   -1.0881    1.1078 H         1 UNK         0.0793 
     99 H99        22.0604   -1.9009   -1.5596 H         1 UNK         0.3024 
    100 H100       23.0030   -4.8899   -1.9745 H         1 UNK         0.1171 
    101 H101       21.5249   -4.2815   -3.9074 H         1 UNK         0.0786 
    102 H102       21.9925   -2.5956   -3.7540 H         1 UNK         0.0786 
    103 H103       21.0875   -3.3952   -2.4658 H         1 UNK         0.0786 
    104 H104       24.3715   -5.3235   -3.6634 H         1 UNK         0.2977 
    105 H105       28.0843    2.3530   -4.5781 H         1 UNK         0.3127 
    106 H106       30.2255    2.4092   -6.4042 H         1 UNK         0.0770 
    107 H107       28.0312    4.4845   -5.8602 H         1 UNK         0.0814 
    108 H108       29.5448    4.8174   -6.6915 H         1 UNK         0.0814 
    109 H109       29.5664    4.3427   -5.0018 H         1 UNK         0.0814 
    110 H110       26.9196    1.7407   -7.0767 H         1 UNK         0.2983 
    111 H111       26.8452    2.4188   -9.8719 H         1 UNK         0.0947 
    112 H112       24.8128    0.9136   -9.8344 H         1 UNK         0.0806 
    113 H113       24.7720    2.1381   -8.5777 H         1 UNK         0.0806 
    114 H114       25.1879    0.4763   -8.1719 H         1 UNK         0.0806 
    115 H115       28.3980   -0.1959   -8.1414 H         1 UNK         0.3000 
    116 H116       28.7673   -1.7849  -10.6495 H         1 UNK         0.0850 
    117 H117       29.6128   -3.5421   -9.0592 H         1 UNK         0.0810 
    118 H118       27.9331   -3.1508   -8.7583 H         1 UNK         0.0810 
    119 H119       29.1935   -2.5170   -7.6970 H         1 UNK         0.0810 
    120 H120       30.7633   -1.8744  -11.4815 H         1 UNK         0.3040 
    121 H121       32.8790   -1.4838  -12.0026 H         1 UNK         0.0766 
    122 H122       33.2850   -2.2953   -9.0797 H         1 UNK         0.0812 
    123 H123       34.4729   -2.4651  -10.3640 H         1 UNK         0.0812 
    124 H124       32.9921   -3.4024  -10.4176 H         1 UNK         0.0812 
    125 H125       31.5734    0.9679  -10.6706 H         1 UNK         0.3205 
    126 H126       31.9825    3.0561  -10.0994 H         1 UNK         0.0754 
    127 H127       33.9908    4.2428  -10.9063 H         1 UNK         0.0769 
    128 H128       33.3949    3.1759  -12.1660 H         1 UNK         0.0769 
    129 H129       34.8165    2.7250  -11.2251 H         1 UNK         0.0769 
    130 H130       32.1458    1.1094   -8.0980 H         1 UNK         0.2981 
    131 H131       34.3351    1.4799   -6.3438 H         1 UNK         0.0541 
    132 H132       32.1836    4.0138   -7.0183 H         1 UNK         0.3459 
    133 H133       32.3545    4.8370   -5.4877 H         1 UNK         0.3459 
    134 H134       31.5069    0.4408   -5.8258 H         1 UNK         0.0612 
    135 H135       32.7572    0.4309   -4.6114 H         1 UNK         0.0612 
    136 H136       34.1569   -2.9673   -5.0777 H         1 UNK         0.0624 
    137 H137       34.1293   -1.5009   -4.1365 H         1 UNK         0.0624 
@<TRIPOS>BOND
     1    1    2 1    
     2    1   72 1    
     3    1   73 1    
     4    1   74 1    
     5    2    3 2    
     6    2    4 am   BACKBONE|DICT|INTERRES
     7    4    5 1    
     8    4   75 1    
     9    5    6 1    
    10    5   35 1    
    11    5   76 1    
    12    6    7 1    
    13    6   77 1    
    14    6   78 1    
    15    7    8 1    
    16    8    9 1    
    17    8   79 1    
    18    8   80 1    
    19    9   10 ar   
    20    9   14 ar   
    21   10   11 ar   
    22   10   81 1    
    23   11   12 ar   
    24   11   71 1    
    25   12   13 ar   
    26   12   82 1    
    27   13   14 ar   
    28   13   15 1    
    29   14   83 1    
    30   15   16 1    
    31   15   84 1    
    32   15   85 1    
    33   16   17 1    
    34   17   18 1    
    35   17   86 1    
    36   17   87 1    
    37   18   19 1    
    38   18   37 1    
    39   18   88 1    
    40   19   20 am   BACKBONE|DICT|INTERRES
    41   19   89 1    
    42   20   21 2    
    43   20   22 1    
    44   22   23 1    
    45   22   24 1    
    46   22   90 1    
    47   23   91 1    
    48   23   92 1    
    49   23   93 1    
    50   24   25 am   BACKBONE|DICT|INTERRES
    51   24   94 1    
    52   25   26 2    
    53   25   27 1    
    54   27   28 1    
    55   27   29 1    
    56   27   95 1    
    57   28   96 1    
    58   28   97 1    
    59   28   98 1    
    60   29   30 am   BACKBONE|DICT|INTERRES
    61   29   99 1    
    62   30   31 2    
    63   30   32 1    
    64   32   33 1    
    65   32   34 1    
    66   32  100 1    
    67   33  101 1    
    68   33  102 1    
    69   33  103 1    
    70   34   35 am   BACKBONE|DICT|INTERRES
    71   34  104 1    
    72   35   36 2    
    73   37   38 2    
    74   37   39 am   BACKBONE|DICT|INTERRES
    75   39   40 1    
    76   39  105 1    
    77   40   41 1    
    78   40   42 1    
    79   40  106 1    
    80   41  107 1    
    81   41  108 1    
    82   41  109 1    
    83   42   43 2    
    84   42   44 am   BACKBONE|DICT|INTERRES
    85   44   45 1    
    86   44  110 1    
    87   45   46 1    
    88   45   47 1    
    89   45  111 1    
    90   46  112 1    
    91   46  113 1    
    92   46  114 1    
    93   47   48 2    
    94   47   49 am   BACKBONE|DICT|INTERRES
    95   49   50 1    
    96   49  115 1    
    97   50   51 1    
    98   50   52 1    
    99   50  116 1    
   100   51  117 1    
   101   51  118 1    
   102   51  119 1    
   103   52   53 2    
   104   52   54 am   BACKBONE|DICT|INTERRES
   105   54   55 1    
   106   54  120 1    
   107   55   56 1    
   108   55   57 1    
   109   55  121 1    
   110   56  122 1    
   111   56  123 1    
   112   56  124 1    
   113   57   58 2    
   114   57   59 am   BACKBONE|DICT|INTERRES
   115   59   60 1    
   116   59  125 1    
   117   60   61 1    
   118   60   62 1    
   119   60  126 1    
   120   61  127 1    
   121   61  128 1    
   122   61  129 1    
   123   62   63 2    
   124   62   64 am   BACKBONE|DICT|INTERRES
   125   64   65 1    
   126   64  130 1    
   127   65   66 1    
   128   65   69 1    
   129   65  131 1    
   130   66   67 am   BACKBONE|DICT|INTERRES
   131   66   68 2    
   132   67  132 1    
   133   67  133 1    
   134   69   70 1    
   135   69  134 1    
   136   69  135 1    
   137   70   71 1    
   138   71  136 1    
   139   71  137 1    
@<TRIPOS>SUBSTRUCTURE
     1 UNK         1 GROUP             0       ****    0 ROOT    
