@<TRIPOS>MOLECULE
3R137
137   139    1
SMALL
USER_CHARGES


@<TRIPOS>ATOM
      1 CA         27.4334   -7.6351    0.0070 C.3       0 UNK        -0.2020 
      2 C          27.8659   -6.1818   -0.1196 C.2       0 UNK         0.4855 
      3 O          28.6867   -5.7183    0.6730 O.2       0 UNK        -0.5197 
      4 N          27.3159   -5.4648   -1.1048 N.am      1 UNK        -0.4892 
      5 CA         27.5592   -4.0437   -1.3599 C.3       1 UNK         0.0835 
      6 C6         28.3245   -3.8049   -2.6861 C.3       12 UNK        -0.0855 
      7 S7         29.9947   -4.5343   -2.7299 S.3       12 UNK        -0.2931 
      8 C8         31.0025   -3.2525   -1.9112 C.3       12 UNK         0.0378 
      9 C9         30.9401   -1.8933   -2.6012 C.ar      12 UNK        -0.0802 
     10 C10        31.2914   -1.7614   -3.9489 C.ar      12 UNK        -0.0944 
     11 C11        31.2544   -0.5101   -4.5695 C.ar      12 UNK        -0.0787 
     12 C12        30.8879    0.6161   -3.8299 C.ar      12 UNK        -0.0862 
     13 C13        30.5140    0.4999   -2.4877 C.ar      12 UNK        -0.0733 
     14 C14        30.5470   -0.7599   -1.8800 C.ar      12 UNK        -0.0832 
     15 C15        30.0926    1.7240   -1.6749 C.3       12 UNK         0.0240 
     16 S16        29.0260    2.9031   -2.5794 S.3       12 UNK        -0.2522 
     17 C17        27.6537    1.8356   -3.1275 C.3       12 UNK        -0.0967 
     18 CA         27.6350    1.6661   -4.6738 C.3       5 UNK         0.0660 
     19 N          27.3775    0.2833   -5.0703 N.am      5 UNK        -0.4015 
     20 C          27.6109   -0.2326   -6.2849 C.2       4 UNK         0.4946 
     21 O          28.1462    0.3832   -7.2080 O.2       4 UNK        -0.5353 
     22 CA         27.1437   -1.6818   -6.5134 C.3       4 UNK         0.0277 
     23 CB         28.2933   -2.6645   -6.2388 C.3       4 UNK        -0.1981 
     24 N          25.9806   -2.0463   -5.6938 N.am      4 UNK        -0.4209 
     25 C          24.7588   -1.5110   -5.8373 C.2       3 UNK         0.4942 
     26 O          24.4752   -0.6751   -6.6929 O.2       3 UNK        -0.5208 
     27 CA         23.6929   -1.9300   -4.8132 C.3       3 UNK         0.0250 
     28 CB         23.1278   -3.3193   -5.1480 C.3       3 UNK        -0.1990 
     29 N          24.1825   -1.9154   -3.4316 N.am      3 UNK        -0.4232 
     30 C          24.6506   -0.8420   -2.7816 C.2       2 UNK         0.4993 
     31 O          24.7696    0.2690   -3.2980 O.2       2 UNK        -0.5286 
     32 CA         25.1095   -1.0453   -1.3275 C.3       2 UNK         0.0209 
     33 CB         23.9270   -1.3815   -0.3963 C.3       2 UNK        -0.1931 
     34 N          26.2132   -2.0091   -1.1932 N.am      2 UNK        -0.4546 
     35 C          26.2004   -3.3290   -1.4327 C.2       1 UNK         0.5154 
     36 O          25.1945   -3.9614   -1.7701 O.2       1 UNK        -0.5181 
     37 C          26.6288    2.6144   -5.3508 C.2       5 UNK         0.5014 
     38 O          27.0397    3.5879   -5.9825 O.2       5 UNK        -0.5248 
     39 N          25.3329    2.2823   -5.2442 N.am      6 UNK        -0.4434 
     40 CA         24.2199    3.0031   -5.8683 C.3       6 UNK         0.0363 
     41 CB         22.8901    2.4037   -5.3838 C.3       6 UNK        -0.1936 
     42 C          24.2858    3.0089   -7.4057 C.2       6 UNK         0.5081 
     43 O          24.0006    4.0370   -8.0199 O.2       6 UNK        -0.5248 
     44 N          24.6856    1.8750   -7.9972 N.am      7 UNK        -0.4718 
     45 CA         24.9116    1.7175   -9.4369 C.3       7 UNK         0.0273 
     46 CB         24.9660    0.2179   -9.7724 C.3       7 UNK        -0.1935 
     47 C          26.1854    2.4167   -9.9481 C.2       7 UNK         0.5018 
     48 O          26.3085    2.5997  -11.1599 O.2       7 UNK        -0.5186 
     49 N          27.1037    2.7707   -9.0346 N.am      8 UNK        -0.4240 
     50 CA         28.4341    3.3411   -9.2761 C.3       8 UNK         0.0235 
     51 CB         28.3263    4.7705   -9.8489 C.3       8 UNK        -0.2000 
     52 C          29.3131    2.4049  -10.1278 C.2       8 UNK         0.4941 
     53 O          29.8520    2.8186  -11.1576 O.2       8 UNK        -0.5273 
     54 N          29.4066    1.1425   -9.6901 N.am      9 UNK        -0.4262 
     55 CA         30.1855    0.0818  -10.3315 C.3       9 UNK         0.0264 
     56 CB         29.7298   -1.2662   -9.7463 C.3       9 UNK        -0.1955 
     57 C          31.7058    0.2677  -10.1554 C.2       9 UNK         0.5031 
     58 O          32.1491    1.1290   -9.3933 O.2       9 UNK        -0.5390 
     59 N          32.4811   -0.5832  -10.8434 N.am      10 UNK        -0.4204 
     60 CA         33.9459   -0.6517  -10.7478 C.3       10 UNK         0.0237 
     61 CB         34.4873   -1.4688  -11.9331 C.3       10 UNK        -0.1985 
     62 C          34.4648   -1.2296   -9.4139 C.2       10 UNK         0.4970 
     63 O          35.6401   -1.0387   -9.0994 O.2       10 UNK        -0.4914 
     64 N          33.5911   -1.9215   -8.6687 N.am      11 UNK        -0.4285 
     65 CA         33.8289   -2.5029   -7.3336 C.3       11 UNK         0.1007 
     66 C          34.7642   -3.7497   -7.3173 C.2       11 UNK         0.5703 
     67 N          35.0818   -4.3553   -8.4556 N.am      11 UNK        -0.7361 
     68 O          35.1836   -4.1999   -6.2535 O.2       11 UNK        -0.4986 
     69 C69        34.2181   -1.4574   -6.2397 C.3       12 UNK        -0.0947 
     70 S70        33.3165    0.1317   -6.2965 S.3       12 UNK        -0.2240 
     71 C71        31.5861   -0.3622   -6.0438 C.3       12 UNK         0.0194 
     72 H72        26.9828   -7.8092    0.9837 H         1 UNK         0.0906 
     73 H73        26.7067   -7.9130   -0.7564 H         1 UNK         0.0906 
     74 H74        28.2967   -8.2926   -0.0925 H         1 UNK         0.0906 
     75 H75        26.5842   -5.8682   -1.6755 H         1 UNK         0.3140 
     76 H76        28.1225   -3.6015   -0.5352 H         1 UNK         0.1085 
     77 H77        28.4053   -2.7378   -2.8979 H         1 UNK         0.0836 
     78 H78        27.7675   -4.2321   -3.5224 H         1 UNK         0.0836 
     79 H79        32.0408   -3.5861   -1.8909 H         1 UNK         0.0731 
     80 H80        30.6876   -3.1767   -0.8693 H         1 UNK         0.0731 
     81 H81        31.5868   -2.6349   -4.5139 H         1 UNK         0.1312 
     82 H82        30.8815    1.5851   -4.3092 H         1 UNK         0.1406 
     83 H83        30.2784   -0.8559   -0.8366 H         1 UNK         0.1631 
     84 H84        30.9905    2.2484   -1.3460 H         1 UNK         0.0717 
     85 H85        29.5663    1.4173   -0.7696 H         1 UNK         0.0717 
     86 H86        27.7542    0.8683   -2.6336 H         1 UNK         0.0934 
     87 H87        26.7179    2.2464   -2.7422 H         1 UNK         0.0934 
     88 H88        28.6197    1.9171   -5.0734 H         1 UNK         0.0739 
     89 H89        26.8832   -0.2859   -4.4013 H         1 UNK         0.3093 
     90 H90        26.8560   -1.7754   -7.5626 H         1 UNK         0.0818 
     91 H91        29.1205   -2.5001   -6.9274 H         1 UNK         0.0819 
     92 H92        27.9762   -3.7000   -6.3627 H         1 UNK         0.0819 
     93 H93        28.6940   -2.5497   -5.2327 H         1 UNK         0.0819 
     94 H94        26.1185   -2.7418   -4.9761 H         1 UNK         0.3041 
     95 H95        22.8773   -1.2066   -4.8778 H         1 UNK         0.0784 
     96 H96        22.7524   -3.3521   -6.1720 H         1 UNK         0.0793 
     97 H97        23.8830   -4.1003   -5.0508 H         1 UNK         0.0793 
     98 H98        22.2960   -3.5759   -4.4917 H         1 UNK         0.0793 
     99 H99        24.1951   -2.7996   -2.9295 H         1 UNK         0.3024 
    100 H100       25.5097   -0.0845   -0.9976 H         1 UNK         0.1171 
    101 H101       24.2493   -1.4423    0.6432 H         1 UNK         0.0786 
    102 H102       23.1593   -0.6084   -0.4512 H         1 UNK         0.0786 
    103 H103       23.4491   -2.3273   -0.6522 H         1 UNK         0.0786 
    104 H104       27.0974   -1.5937   -0.9337 H         1 UNK         0.2977 
    105 H105       25.0856    1.4803   -4.6666 H         1 UNK         0.3127 
    106 H106       24.2707    4.0407   -5.5319 H         1 UNK         0.0770 
    107 H107       22.7921    1.3560   -5.6707 H         1 UNK         0.0814 
    108 H108       22.0414    2.9405   -5.8097 H         1 UNK         0.0814 
    109 H109       22.8006    2.4619   -4.2989 H         1 UNK         0.0814 
    110 H110       24.8108    1.0431   -7.4240 H         1 UNK         0.2983 
    111 H111       24.0639    2.1579   -9.9664 H         1 UNK         0.0947 
    112 H112       25.0895    0.0594  -10.8446 H         1 UNK         0.0806 
    113 H113       24.0487   -0.2898   -9.4737 H         1 UNK         0.0806 
    114 H114       25.8004   -0.2741   -9.2714 H         1 UNK         0.0806 
    115 H115       26.8939    2.5710   -8.0647 H         1 UNK         0.3000 
    116 H116       28.9172    3.4123   -8.3001 H         1 UNK         0.0850 
    117 H117       29.3116    5.2305   -9.9330 H         1 UNK         0.0810 
    118 H118       27.7235    5.4096   -9.2036 H         1 UNK         0.0810 
    119 H119       27.8784    4.7787  -10.8430 H         1 UNK         0.0810 
    120 H120       28.9472    0.8998   -8.8136 H         1 UNK         0.3040 
    121 H121       29.9620    0.0965  -11.4003 H         1 UNK         0.0766 
    122 H122       28.6487   -1.3871   -9.8205 H         1 UNK         0.0812 
    123 H123       30.0023   -1.3481   -8.6949 H         1 UNK         0.0812 
    124 H124       30.1821   -2.1082  -10.2710 H         1 UNK         0.0812 
    125 H125       32.0396   -1.2487  -11.4623 H         1 UNK         0.3205 
    126 H126       34.3363    0.3651  -10.8285 H         1 UNK         0.0754 
    127 H127       35.5773   -1.5135  -11.9122 H         1 UNK         0.0769 
    128 H128       34.2037   -1.0215  -12.8861 H         1 UNK         0.0769 
    129 H129       34.1192   -2.4955  -11.9200 H         1 UNK         0.0769 
    130 H130       32.6605   -2.0463   -9.0344 H         1 UNK         0.2981 
    131 H131       32.8629   -2.9146   -7.0430 H         1 UNK         0.0541 
    132 H132       35.6780   -5.1676   -8.4323 H         1 UNK         0.3459 
    133 H133       34.7414   -4.0030   -9.3352 H         1 UNK         0.3459 
    134 H134       34.0830   -1.8851   -5.2449 H         1 UNK         0.0612 
    135 H135       35.2798   -1.2175   -6.3190 H         1 UNK         0.0612 
    136 H136       30.9450    0.4032   -6.4846 H         1 UNK         0.0624 
    137 H137       31.3609   -1.2794   -6.5853 H         1 UNK         0.0624 
@<TRIPOS>BOND
     1    1    2 1    
     2    1   72 1    
     3    1   73 1    
     4    1   74 1    
     5    2    3 2    
     6    2    4 am   BACKBONE|DICT|INTERRES
     7    4    5 1    
     8    4   75 1    
     9    5    6 1    
    10    5   35 1    
    11    5   76 1    
    12    6    7 1    
    13    6   77 1    
    14    6   78 1    
    15    7    8 1    
    16    8    9 1    
    17    8   79 1    
    18    8   80 1    
    19    9   10 ar   
    20    9   14 ar   
    21   10   11 ar   
    22   10   81 1    
    23   11   12 ar   
    24   11   71 1    
    25   12   13 ar   
    26   12   82 1    
    27   13   14 ar   
    28   13   15 1    
    29   14   83 1    
    30   15   16 1    
    31   15   84 1    
    32   15   85 1    
    33   16   17 1    
    34   17   18 1    
    35   17   86 1    
    36   17   87 1    
    37   18   19 1    
    38   18   37 1    
    39   18   88 1    
    40   19   20 am   BACKBONE|DICT|INTERRES
    41   19   89 1    
    42   20   21 2    
    43   20   22 1    
    44   22   23 1    
    45   22   24 1    
    46   22   90 1    
    47   23   91 1    
    48   23   92 1    
    49   23   93 1    
    50   24   25 am   BACKBONE|DICT|INTERRES
    51   24   94 1    
    52   25   26 2    
    53   25   27 1    
    54   27   28 1    
    55   27   29 1    
    56   27   95 1    
    57   28   96 1    
    58   28   97 1    
    59   28   98 1    
    60   29   30 am   BACKBONE|DICT|INTERRES
    61   29   99 1    
    62   30   31 2    
    63   30   32 1    
    64   32   33 1    
    65   32   34 1    
    66   32  100 1    
    67   33  101 1    
    68   33  102 1    
    69   33  103 1    
    70   34   35 am   BACKBONE|DICT|INTERRES
    71   34  104 1    
    72   35   36 2    
    73   37   38 2    
    74   37   39 am   BACKBONE|DICT|INTERRES
    75   39   40 1    
    76   39  105 1    
    77   40   41 1    
    78   40   42 1    
    79   40  106 1    
    80   41  107 1    
    81   41  108 1    
    82   41  109 1    
    83   42   43 2    
    84   42   44 am   BACKBONE|DICT|INTERRES
    85   44   45 1    
    86   44  110 1    
    87   45   46 1    
    88   45   47 1    
    89   45  111 1    
    90   46  112 1    
    91   46  113 1    
    92   46  114 1    
    93   47   48 2    
    94   47   49 am   BACKBONE|DICT|INTERRES
    95   49   50 1    
    96   49  115 1    
    97   50   51 1    
    98   50   52 1    
    99   50  116 1    
   100   51  117 1    
   101   51  118 1    
   102   51  119 1    
   103   52   53 2    
   104   52   54 am   BACKBONE|DICT|INTERRES
   105   54   55 1    
   106   54  120 1    
   107   55   56 1    
   108   55   57 1    
   109   55  121 1    
   110   56  122 1    
   111   56  123 1    
   112   56  124 1    
   113   57   58 2    
   114   57   59 am   BACKBONE|DICT|INTERRES
   115   59   60 1    
   116   59  125 1    
   117   60   61 1    
   118   60   62 1    
   119   60  126 1    
   120   61  127 1    
   121   61  128 1    
   122   61  129 1    
   123   62   63 2    
   124   62   64 am   BACKBONE|DICT|INTERRES
   125   64   65 1    
   126   64  130 1    
   127   65   66 1    
   128   65   69 1    
   129   65  131 1    
   130   66   67 am   BACKBONE|DICT|INTERRES
   131   66   68 2    
   132   67  132 1    
   133   67  133 1    
   134   69   70 1    
   135   69  134 1    
   136   69  135 1    
   137   70   71 1    
   138   71  136 1    
   139   71  137 1    
@<TRIPOS>SUBSTRUCTURE
     1 UNK         1 GROUP             0       ****    0 ROOT    
