@<TRIPOS>MOLECULE
3R137
137   139    1
SMALL
USER_CHARGES


@<TRIPOS>ATOM
      1 CA         27.9330   -0.3615    3.7075 C.3       0 UNK        -0.2020 
      2 C          28.0706   -0.1647    2.2049 C.2       0 UNK         0.4855 
      3 O          28.0629    0.9741    1.7358 O.2       0 UNK        -0.5197 
      4 N          28.2057   -1.2646    1.4549 N.am      1 UNK        -0.4892 
      5 CA         28.2923   -1.2922   -0.0079 C.3       1 UNK         0.0835 
      6 C6         29.4098   -2.2581   -0.4892 C.3       12 UNK        -0.0855 
      7 S7         29.1685   -4.0034    0.0081 S.3       12 UNK        -0.2931 
      8 C8         30.6615   -4.7909   -0.6777 C.3       12 UNK         0.0378 
      9 C9         30.8247   -4.5268   -2.1688 C.ar      12 UNK        -0.0802 
     10 C10        31.9058   -3.7712   -2.6303 C.ar      12 UNK        -0.0944 
     11 C11        32.0593   -3.5171   -3.9948 C.ar      12 UNK        -0.0787 
     12 C12        31.1310   -4.0350   -4.9020 C.ar      12 UNK        -0.0862 
     13 C13        30.0186   -4.7576   -4.4523 C.ar      12 UNK        -0.0733 
     14 C14        29.8865   -5.0163   -3.0835 C.ar      12 UNK        -0.0832 
     15 C15        28.9463   -5.2757   -5.4123 C.3       12 UNK         0.0240 
     16 S16        28.6369   -4.2371   -6.8868 S.3       12 UNK        -0.2522 
     17 C17        28.4720   -2.5525   -6.2030 C.3       12 UNK        -0.0967 
     18 CA         27.6563   -1.6414   -7.1519 C.3       5 UNK         0.0660 
     19 N          26.2133   -1.8733   -7.0535 N.am      5 UNK        -0.4015 
     20 C          25.3042   -1.3816   -7.9076 C.2       4 UNK         0.4946 
     21 O          25.5830   -0.6999   -8.8941 O.2       4 UNK        -0.5353 
     22 CA         23.8295   -1.6624   -7.5778 C.3       4 UNK         0.0277 
     23 CB         23.4492   -3.1041   -7.9524 C.3       4 UNK        -0.1981 
     24 N          23.5121   -1.4133   -6.1691 N.am      4 UNK        -0.4209 
     25 C          23.5662   -0.2065   -5.5865 C.2       3 UNK         0.4942 
     26 O          23.8596    0.8296   -6.1799 O.2       3 UNK        -0.5208 
     27 CA         23.2858   -0.1463   -4.0768 C.3       3 UNK         0.0250 
     28 CB         21.7742   -0.0609   -3.8115 C.3       3 UNK        -0.1990 
     29 N          23.8592   -1.2609   -3.3151 N.am      3 UNK        -0.4232 
     30 C          25.1616   -1.5738   -3.2736 C.2       2 UNK         0.4993 
     31 O          26.0292   -1.0216   -3.9553 O.2       2 UNK        -0.5286 
     32 CA         25.5608   -2.7285   -2.3455 C.3       2 UNK         0.0209 
     33 CB         25.7556   -4.0217   -3.1518 C.3       2 UNK        -0.1931 
     34 N          26.7987   -2.4130   -1.6327 N.am      2 UNK        -0.4546 
     35 C          26.8902   -1.5466   -0.6141 C.2       1 UNK         0.5154 
     36 O          25.9097   -0.9593   -0.1482 O.2       1 UNK        -0.5181 
     37 C          28.0115   -0.1593   -6.9407 C.2       5 UNK         0.5014 
     38 O          28.8478    0.3615   -7.6807 O.2       5 UNK        -0.5248 
     39 N          27.3612    0.4954   -5.9682 N.am      6 UNK        -0.4434 
     40 CA         27.5036    1.9256   -5.6933 C.3       6 UNK         0.0363 
     41 CB         26.7586    2.2825   -4.3975 C.3       6 UNK        -0.1936 
     42 C          27.0289    2.8051   -6.8626 C.2       6 UNK         0.5081 
     43 O          27.7425    3.7335   -7.2412 O.2       6 UNK        -0.5248 
     44 N          25.8586    2.4839   -7.4342 N.am      7 UNK        -0.4718 
     45 CA         25.2814    3.1725   -8.5934 C.3       7 UNK         0.0273 
     46 CB         23.8385    2.6934   -8.8179 C.3       7 UNK        -0.1935 
     47 C          26.1126    2.9975   -9.8743 C.2       7 UNK         0.5018 
     48 O          26.2835    3.9634  -10.6191 O.2       7 UNK        -0.5186 
     49 N          26.6291    1.7812  -10.0988 N.am      8 UNK        -0.4240 
     50 CA         27.5166    1.4549  -11.2184 C.3       8 UNK         0.0235 
     51 CB         27.5653   -0.0728  -11.3871 C.3       8 UNK        -0.2000 
     52 C          28.9442    2.0106  -11.0605 C.2       8 UNK         0.4941 
     53 O          29.6661    2.0734  -12.0564 O.2       8 UNK        -0.5273 
     54 N          29.3345    2.3587   -9.8235 N.am      9 UNK        -0.4262 
     55 CA         30.6912    2.6989   -9.3754 C.3       9 UNK         0.0264 
     56 CB         31.1776    4.0200  -10.0073 C.3       9 UNK        -0.1955 
     57 C          31.6690    1.5248   -9.5847 C.2       9 UNK         0.5031 
     58 O          32.8118    1.7281  -10.0016 O.2       9 UNK        -0.5390 
     59 N          31.1878    0.3065   -9.2956 N.am      10 UNK        -0.4204 
     60 CA         31.8662   -0.9662   -9.5622 C.3       10 UNK         0.0237 
     61 CB         30.8928   -2.1227   -9.2860 C.3       10 UNK        -0.1985 
     62 C          33.1692   -1.1647   -8.7712 C.2       10 UNK         0.4970 
     63 O          34.0336   -1.9205   -9.2166 O.2       10 UNK        -0.4914 
     64 N          33.2863   -0.4867   -7.6243 N.am      11 UNK        -0.4285 
     65 CA         34.4778   -0.4882   -6.7654 C.3       11 UNK         0.1007 
     66 C          35.6592    0.3671   -7.3118 C.2       11 UNK         0.5703 
     67 N          35.4834    1.1618   -8.3630 N.am      11 UNK        -0.7361 
     68 O          36.7616    0.3017   -6.7731 O.2       11 UNK        -0.4986 
     69 C69        34.1407   -0.1062   -5.2972 C.3       12 UNK        -0.0947 
     70 S70        32.6502   -0.9204   -4.6280 S.3       12 UNK        -0.2240 
     71 C71        33.2021   -2.6465   -4.4877 C.3       12 UNK         0.0194 
     72 H72        26.9824    0.0439    4.0529 H         1 UNK         0.0906 
     73 H73        28.7356    0.1590    4.2294 H         1 UNK         0.0906 
     74 H74        27.9742   -1.4141    3.9873 H         1 UNK         0.0906 
     75 H75        28.1837   -2.1749    1.8939 H         1 UNK         0.3140 
     76 H76        28.5732   -0.2989   -0.3652 H         1 UNK         0.1085 
     77 H77        30.3679   -1.9253   -0.0863 H         1 UNK         0.0836 
     78 H78        29.5201   -2.1949   -1.5733 H         1 UNK         0.0836 
     79 H79        31.5321   -4.4384   -0.1222 H         1 UNK         0.0731 
     80 H80        30.6053   -5.8670   -0.5078 H         1 UNK         0.0731 
     81 H81        32.6215   -3.3664   -1.9275 H         1 UNK         0.1312 
     82 H82        31.2589   -3.8374   -5.9572 H         1 UNK         0.1406 
     83 H83        29.0416   -5.5866   -2.7206 H         1 UNK         0.1631 
     84 H84        28.0006   -5.4038   -4.8856 H         1 UNK         0.0717 
     85 H85        29.2401   -6.2700   -5.7504 H         1 UNK         0.0717 
     86 H86        28.0271   -2.5860   -5.2075 H         1 UNK         0.0934 
     87 H87        29.4809   -2.1596   -6.0638 H         1 UNK         0.0934 
     88 H88        27.9464   -1.8719   -8.1796 H         1 UNK         0.0739 
     89 H89        25.8939   -2.3883   -6.2475 H         1 UNK         0.3093 
     90 H90        23.2233   -0.9832   -8.1813 H         1 UNK         0.0818 
     91 H91        23.6695   -3.3036   -9.0022 H         1 UNK         0.0819 
     92 H92        23.9960   -3.8387   -7.3600 H         1 UNK         0.0819 
     93 H93        22.3835   -3.2827   -7.8084 H         1 UNK         0.0819 
     94 H94        23.2546   -2.2091   -5.6039 H         1 UNK         0.3041 
     95 H95        23.7458    0.7694   -3.6999 H         1 UNK         0.0784 
     96 H96        21.3297    0.7739   -4.3558 H         1 UNK         0.0793 
     97 H97        21.2548   -0.9674   -4.1247 H         1 UNK         0.0793 
     98 H98        21.5649    0.0985   -2.7535 H         1 UNK         0.0793 
     99 H99        23.2170   -1.7801   -2.7333 H         1 UNK         0.3024 
    100 H100       24.7710   -2.8907   -1.6082 H         1 UNK         0.1171 
    101 H101       24.8304   -4.3172   -3.6482 H         1 UNK         0.0786 
    102 H102       26.5147   -3.9014   -3.9232 H         1 UNK         0.0786 
    103 H103       26.0570   -4.8497   -2.5097 H         1 UNK         0.0786 
    104 H104       27.6407   -2.8657   -1.9572 H         1 UNK         0.2977 
    105 H105       26.7370   -0.0285   -5.3563 H         1 UNK         0.3127 
    106 H106       28.5662    2.1253   -5.5388 H         1 UNK         0.0770 
    107 H107       25.6877    2.0990   -4.4841 H         1 UNK         0.0814 
    108 H108       26.8904    3.3365   -4.1498 H         1 UNK         0.0814 
    109 H109       27.1294    1.7005   -3.5534 H         1 UNK         0.0814 
    110 H110       25.3012    1.7343   -7.0296 H         1 UNK         0.2983 
    111 H111       25.2535    4.2401   -8.3648 H         1 UNK         0.0947 
    112 H112       23.7949    1.6193   -9.0033 H         1 UNK         0.0806 
    113 H113       23.3878    3.1936   -9.6762 H         1 UNK         0.0806 
    114 H114       23.2116    2.9077   -7.9522 H         1 UNK         0.0806 
    115 H115       26.3801    1.0179   -9.4743 H         1 UNK         0.3000 
    116 H116       27.0960    1.8874  -12.1288 H         1 UNK         0.0850 
    117 H117       28.2005   -0.3568  -12.2273 H         1 UNK         0.0810 
    118 H118       26.5732   -0.4824  -11.5777 H         1 UNK         0.0810 
    119 H119       27.9624   -0.5615  -10.4965 H         1 UNK         0.0810 
    120 H120       28.6602    2.2364   -9.0779 H         1 UNK         0.3040 
    121 H121       30.6238    2.8526   -8.2972 H         1 UNK         0.0766 
    122 H122       31.3298    3.9251  -11.0828 H         1 UNK         0.0812 
    123 H123       32.1279    4.3322   -9.5726 H         1 UNK         0.0812 
    124 H124       30.4631    4.8256   -9.8383 H         1 UNK         0.0812 
    125 H125       30.2628    0.2567   -8.8706 H         1 UNK         0.3205 
    126 H126       32.1256   -0.9815  -10.6227 H         1 UNK         0.0754 
    127 H127       31.3482   -3.0847   -9.5249 H         1 UNK         0.0769 
    128 H128       29.9875   -2.0360   -9.8868 H         1 UNK         0.0769 
    129 H129       30.6003   -2.1542   -8.2368 H         1 UNK         0.0769 
    130 H130       32.5246    0.1045   -7.3289 H         1 UNK         0.2981 
    131 H131       34.8544   -1.5121   -6.7478 H         1 UNK         0.0541 
    132 H132       36.2614    1.7039   -8.7034 H         1 UNK         0.3459 
    133 H133       34.5852    1.2263   -8.8259 H         1 UNK         0.3459 
    134 H134       33.9774    0.9702   -5.2181 H         1 UNK         0.0612 
    135 H135       34.9827   -0.3337   -4.6409 H         1 UNK         0.0612 
    136 H136       33.5468   -3.0059   -5.4580 H         1 UNK         0.0624 
    137 H137       34.0534   -2.7053   -3.8078 H         1 UNK         0.0624 
@<TRIPOS>BOND
     1    1    2 1    
     2    1   72 1    
     3    1   73 1    
     4    1   74 1    
     5    2    3 2    
     6    2    4 am   BACKBONE|DICT|INTERRES
     7    4    5 1    
     8    4   75 1    
     9    5    6 1    
    10    5   35 1    
    11    5   76 1    
    12    6    7 1    
    13    6   77 1    
    14    6   78 1    
    15    7    8 1    
    16    8    9 1    
    17    8   79 1    
    18    8   80 1    
    19    9   10 ar   
    20    9   14 ar   
    21   10   11 ar   
    22   10   81 1    
    23   11   12 ar   
    24   11   71 1    
    25   12   13 ar   
    26   12   82 1    
    27   13   14 ar   
    28   13   15 1    
    29   14   83 1    
    30   15   16 1    
    31   15   84 1    
    32   15   85 1    
    33   16   17 1    
    34   17   18 1    
    35   17   86 1    
    36   17   87 1    
    37   18   19 1    
    38   18   37 1    
    39   18   88 1    
    40   19   20 am   BACKBONE|DICT|INTERRES
    41   19   89 1    
    42   20   21 2    
    43   20   22 1    
    44   22   23 1    
    45   22   24 1    
    46   22   90 1    
    47   23   91 1    
    48   23   92 1    
    49   23   93 1    
    50   24   25 am   BACKBONE|DICT|INTERRES
    51   24   94 1    
    52   25   26 2    
    53   25   27 1    
    54   27   28 1    
    55   27   29 1    
    56   27   95 1    
    57   28   96 1    
    58   28   97 1    
    59   28   98 1    
    60   29   30 am   BACKBONE|DICT|INTERRES
    61   29   99 1    
    62   30   31 2    
    63   30   32 1    
    64   32   33 1    
    65   32   34 1    
    66   32  100 1    
    67   33  101 1    
    68   33  102 1    
    69   33  103 1    
    70   34   35 am   BACKBONE|DICT|INTERRES
    71   34  104 1    
    72   35   36 2    
    73   37   38 2    
    74   37   39 am   BACKBONE|DICT|INTERRES
    75   39   40 1    
    76   39  105 1    
    77   40   41 1    
    78   40   42 1    
    79   40  106 1    
    80   41  107 1    
    81   41  108 1    
    82   41  109 1    
    83   42   43 2    
    84   42   44 am   BACKBONE|DICT|INTERRES
    85   44   45 1    
    86   44  110 1    
    87   45   46 1    
    88   45   47 1    
    89   45  111 1    
    90   46  112 1    
    91   46  113 1    
    92   46  114 1    
    93   47   48 2    
    94   47   49 am   BACKBONE|DICT|INTERRES
    95   49   50 1    
    96   49  115 1    
    97   50   51 1    
    98   50   52 1    
    99   50  116 1    
   100   51  117 1    
   101   51  118 1    
   102   51  119 1    
   103   52   53 2    
   104   52   54 am   BACKBONE|DICT|INTERRES
   105   54   55 1    
   106   54  120 1    
   107   55   56 1    
   108   55   57 1    
   109   55  121 1    
   110   56  122 1    
   111   56  123 1    
   112   56  124 1    
   113   57   58 2    
   114   57   59 am   BACKBONE|DICT|INTERRES
   115   59   60 1    
   116   59  125 1    
   117   60   61 1    
   118   60   62 1    
   119   60  126 1    
   120   61  127 1    
   121   61  128 1    
   122   61  129 1    
   123   62   63 2    
   124   62   64 am   BACKBONE|DICT|INTERRES
   125   64   65 1    
   126   64  130 1    
   127   65   66 1    
   128   65   69 1    
   129   65  131 1    
   130   66   67 am   BACKBONE|DICT|INTERRES
   131   66   68 2    
   132   67  132 1    
   133   67  133 1    
   134   69   70 1    
   135   69  134 1    
   136   69  135 1    
   137   70   71 1    
   138   71  136 1    
   139   71  137 1    
@<TRIPOS>SUBSTRUCTURE
     1 UNK         1 GROUP             0       ****    0 ROOT    
