@<TRIPOS>MOLECULE
3R137
137   139    1
SMALL
USER_CHARGES


@<TRIPOS>ATOM
      1 CA         30.1903   -5.3291   -5.8233 C.3       0 UNK        -0.2020 
      2 C          29.2905   -5.9345   -4.7549 C.2       0 UNK         0.4855 
      3 O          28.8295   -7.0661   -4.9082 O.2       0 UNK        -0.5197 
      4 N          29.0433   -5.1891   -3.6723 N.am      1 UNK        -0.4892 
      5 CA         28.1107   -5.5416   -2.5974 C.3       1 UNK         0.0835 
      6 C6         28.5222   -4.8584   -1.2647 C.3       12 UNK        -0.0855 
      7 S7         28.4393   -3.0337   -1.3102 S.3       12 UNK        -0.2931 
      8 C8         30.1888   -2.5624   -1.5047 C.3       12 UNK         0.0378 
      9 C9         30.2953   -1.1857   -2.1436 C.ar      12 UNK        -0.0802 
     10 C10        30.8441   -1.0302   -3.4204 C.ar      12 UNK        -0.0944 
     11 C11        30.8777    0.2289   -4.0291 C.ar      12 UNK        -0.0787 
     12 C12        30.3619    1.3368   -3.3505 C.ar      12 UNK        -0.0862 
     13 C13        29.7892    1.1884   -2.0847 C.ar      12 UNK        -0.0733 
     14 C14        29.7889   -0.0686   -1.4752 C.ar      12 UNK        -0.0832 
     15 C15        29.1227    2.3627   -1.3844 C.3       12 UNK         0.0240 
     16 S16        27.3301    2.0750   -1.2039 S.3       12 UNK        -0.2522 
     17 C17        26.6087    2.9425   -2.6381 C.3       12 UNK        -0.0967 
     18 CA         27.0367    2.4284   -4.0377 C.3       5 UNK         0.0660 
     19 N          26.9162    0.9721   -4.1906 N.am      5 UNK        -0.4015 
     20 C          27.2968    0.2886   -5.2808 C.2       4 UNK         0.4946 
     21 O          27.8982    0.8042   -6.2241 O.2       4 UNK        -0.5353 
     22 CA         26.8904   -1.1927   -5.4049 C.3       4 UNK         0.0277 
     23 CB         28.1138   -2.1023   -5.2279 C.3       4 UNK        -0.1981 
     24 N          25.7985   -1.6564   -4.5355 N.am      4 UNK        -0.4209 
     25 C          24.5713   -1.1161   -4.4515 C.2       3 UNK         0.4942 
     26 O          24.2423   -0.0971   -5.0625 O.2       3 UNK        -0.5208 
     27 CA         23.5476   -1.8065   -3.5308 C.3       3 UNK         0.0250 
     28 CB         22.0991   -1.6066   -4.0164 C.3       3 UNK        -0.1990 
     29 N          23.8169   -3.2399   -3.4002 N.am      3 UNK        -0.4232 
     30 C          23.9248   -3.9145   -2.2483 C.2       2 UNK         0.4993 
     31 O          23.7975   -3.4029   -1.1351 O.2       2 UNK        -0.5286 
     32 CA         24.2418   -5.4212   -2.3445 C.3       2 UNK         0.0209 
     33 CB         23.6571   -6.0979   -3.6060 C.3       2 UNK        -0.1931 
     34 N          25.6815   -5.6904   -2.2181 N.am      2 UNK        -0.4546 
     35 C          26.6555   -5.2113   -3.0064 C.2       1 UNK         0.5154 
     36 O          26.4378   -4.5067   -3.9960 O.2       1 UNK        -0.5181 
     37 C          26.2640    3.2062   -5.1275 C.2       5 UNK         0.5014 
     38 O          26.7076    4.2865   -5.5192 O.2       5 UNK        -0.5248 
     39 N          25.1367    2.6509   -5.6017 N.am      6 UNK        -0.4434 
     40 CA         24.3420    3.2141   -6.6951 C.3       6 UNK         0.0363 
     41 CB         22.9138    2.6490   -6.6303 C.3       6 UNK        -0.1936 
     42 C          24.9641    2.9440   -8.0762 C.2       6 UNK         0.5081 
     43 O          24.7573    3.7398   -8.9926 O.2       6 UNK        -0.5248 
     44 N          25.7033    1.8332   -8.2083 N.am      7 UNK        -0.4718 
     45 CA         26.4156    1.4558   -9.4306 C.3       7 UNK         0.0273 
     46 CB         26.6749   -0.0598   -9.4343 C.3       7 UNK        -0.1935 
     47 C          27.7321    2.2307   -9.5865 C.2       7 UNK         0.5018 
     48 O          28.0595    2.6421  -10.7003 O.2       7 UNK        -0.5186 
     49 N          28.4649    2.3982   -8.4745 N.am      8 UNK        -0.4240 
     50 CA         29.7427    3.1039   -8.2977 C.3       8 UNK         0.0235 
     51 CB         29.6213    4.5963   -8.6600 C.3       8 UNK        -0.2000 
     52 C          30.9389    2.4484   -9.0116 C.2       8 UNK         0.4941 
     53 O          31.9801    2.2526   -8.3871 O.2       8 UNK        -0.5273 
     54 N          30.7728    2.0918  -10.2909 N.am      9 UNK        -0.4262 
     55 CA         31.7731    1.4132  -11.1209 C.3       9 UNK         0.0264 
     56 CB         31.3250    1.4674  -12.5900 C.3       9 UNK        -0.1955 
     57 C          32.0433   -0.0420  -10.6961 C.2       9 UNK         0.5031 
     58 O          33.1096   -0.5718  -11.0113 O.2       9 UNK        -0.5390 
     59 N          31.0909   -0.6542   -9.9772 N.am      10 UNK        -0.4204 
     60 CA         31.1152   -2.0396   -9.4933 C.3       10 UNK         0.0237 
     61 CB         29.7757   -2.3392   -8.8000 C.3       10 UNK        -0.1985 
     62 C          32.2938   -2.3959   -8.5649 C.2       10 UNK         0.4970 
     63 O          32.6141   -3.5785   -8.4422 O.2       10 UNK        -0.4914 
     64 N          32.9099   -1.3861   -7.9413 N.am      11 UNK        -0.4285 
     65 CA         34.1100   -1.4975   -7.0996 C.3       11 UNK         0.1007 
     66 C          35.3623   -0.8191   -7.7298 C.2       11 UNK         0.5703 
     67 N          35.3338   -0.4034   -8.9922 N.am      11 UNK        -0.7361 
     68 O          36.3941   -0.6925   -7.0744 O.2       11 UNK        -0.4986 
     69 C69        33.8243   -1.0506   -5.6385 C.3       12 UNK        -0.0947 
     70 S70        33.2023    0.6603   -5.4882 S.3       12 UNK        -0.2240 
     71 C71        31.4032    0.3922   -5.4463 C.3       12 UNK         0.0194 
     72 H72        29.6710   -5.3093   -6.7809 H         1 UNK         0.0906 
     73 H73        30.4893   -4.3095   -5.5805 H         1 UNK         0.0906 
     74 H74        31.0932   -5.9281   -5.9392 H         1 UNK         0.0906 
     75 H75        29.3991   -4.2468   -3.6251 H         1 UNK         0.3140 
     76 H76        28.1587   -6.6225   -2.4456 H         1 UNK         0.1085 
     77 H77        29.5301   -5.1693   -0.9849 H         1 UNK         0.0836 
     78 H78        27.8827   -5.2022   -0.4499 H         1 UNK         0.0836 
     79 H79        30.7118   -3.3051   -2.1086 H         1 UNK         0.0731 
     80 H80        30.6748   -2.5560   -0.5281 H         1 UNK         0.0731 
     81 H81        31.2150   -1.8938   -3.9530 H         1 UNK         0.1312 
     82 H82        30.3725    2.3066   -3.8280 H         1 UNK         0.1406 
     83 H83        29.3376   -0.1898   -0.4994 H         1 UNK         0.1631 
     84 H84        29.3019    3.2997   -1.9137 H         1 UNK         0.0717 
     85 H85        29.5626    2.4791   -0.3930 H         1 UNK         0.0717 
     86 H86        25.5241    2.8755   -2.5295 H         1 UNK         0.0934 
     87 H87        26.8493    4.0032   -2.5398 H         1 UNK         0.0934 
     88 H88        28.0883    2.6752   -4.1806 H         1 UNK         0.0739 
     89 H89        26.4522    0.4775   -3.4438 H         1 UNK         0.3093 
     90 H90        26.5377   -1.3157   -6.4304 H         1 UNK         0.0818 
     91 H91        28.9907   -1.7026   -5.7358 H         1 UNK         0.0819 
     92 H92        27.9287   -3.0928   -5.6423 H         1 UNK         0.0819 
     93 H93        28.3701   -2.2168   -4.1762 H         1 UNK         0.0819 
     94 H94        25.9759   -2.5255   -4.0403 H         1 UNK         0.3041 
     95 H95        23.6482   -1.3187   -2.5593 H         1 UNK         0.0784 
     96 H96        21.8409   -0.5478   -4.0645 H         1 UNK         0.0793 
     97 H97        21.9479   -2.0262   -5.0116 H         1 UNK         0.0793 
     98 H98        21.3866   -2.0799   -3.3407 H         1 UNK         0.0793 
     99 H99        24.0042   -3.7408   -4.2589 H         1 UNK         0.3024 
    100 H100       23.7617   -5.8837   -1.4801 H         1 UNK         0.1171 
    101 H101       23.7680   -7.1810   -3.5516 H         1 UNK         0.0786 
    102 H102       22.5902   -5.8909   -3.7020 H         1 UNK         0.0786 
    103 H103       24.1403   -5.7679   -4.5257 H         1 UNK         0.0786 
    104 H104       25.9475   -6.2316   -1.4069 H         1 UNK         0.2977 
    105 H105       24.8407    1.7423   -5.2510 H         1 UNK         0.3127 
    106 H106       24.2836    4.2968   -6.5632 H         1 UNK         0.0770 
    107 H107       22.8996    1.5678   -6.7735 H         1 UNK         0.0814 
    108 H108       22.2857    3.0884   -7.4064 H         1 UNK         0.0814 
    109 H109       22.4437    2.8660   -5.6711 H         1 UNK         0.0814 
    110 H110       25.8523    1.2556   -7.3934 H         1 UNK         0.2983 
    111 H111       25.7855    1.6931  -10.2911 H         1 UNK         0.0947 
    112 H112       27.1619   -0.3680  -10.3605 H         1 UNK         0.0806 
    113 H113       25.7438   -0.6215   -9.3573 H         1 UNK         0.0806 
    114 H114       27.3199   -0.3659   -8.6108 H         1 UNK         0.0806 
    115 H115       28.1324    1.9271   -7.6330 H         1 UNK         0.3000 
    116 H116       29.9519    3.0500   -7.2283 H         1 UNK         0.0850 
    117 H117       30.5461    5.1276   -8.4314 H         1 UNK         0.0810 
    118 H118       28.8232    5.0749   -8.0918 H         1 UNK         0.0810 
    119 H119       29.4149    4.7472   -9.7199 H         1 UNK         0.0810 
    120 H120       29.8693    2.2977  -10.7142 H         1 UNK         0.3040 
    121 H121       32.7145    1.9590  -11.0279 H         1 UNK         0.0766 
    122 H122       31.2110    2.4962  -12.9320 H         1 UNK         0.0812 
    123 H123       30.3732    0.9562  -12.7411 H         1 UNK         0.0812 
    124 H124       32.0593    0.9905  -13.2410 H         1 UNK         0.0812 
    125 H125       30.2600   -0.1214   -9.7693 H         1 UNK         0.3205 
    126 H126       31.1998   -2.6867  -10.3687 H         1 UNK         0.0754 
    127 H127       29.7605   -3.3481   -8.3858 H         1 UNK         0.0769 
    128 H128       28.9434   -2.2698   -9.5006 H         1 UNK         0.0769 
    129 H129       29.5846   -1.6447   -7.9822 H         1 UNK         0.0769 
    130 H130       32.5954   -0.4412   -8.1128 H         1 UNK         0.2981 
    131 H131       34.3978   -2.5482   -7.0397 H         1 UNK         0.0541 
    132 H132       34.5170   -0.5413   -9.5772 H         1 UNK         0.3459 
    133 H133       36.1586    0.0236   -9.3822 H         1 UNK         0.3459 
    134 H134       33.1066   -1.7351   -5.1887 H         1 UNK         0.0612 
    135 H135       34.7236   -1.1398   -5.0269 H         1 UNK         0.0612 
    136 H136       31.1320   -0.4743   -6.0492 H         1 UNK         0.0624 
    137 H137       30.9165    1.2443   -5.9213 H         1 UNK         0.0624 
@<TRIPOS>BOND
     1    1    2 1    
     2    1   72 1    
     3    1   73 1    
     4    1   74 1    
     5    2    3 2    
     6    2    4 am   BACKBONE|DICT|INTERRES
     7    4    5 1    
     8    4   75 1    
     9    5    6 1    
    10    5   35 1    
    11    5   76 1    
    12    6    7 1    
    13    6   77 1    
    14    6   78 1    
    15    7    8 1    
    16    8    9 1    
    17    8   79 1    
    18    8   80 1    
    19    9   10 ar   
    20    9   14 ar   
    21   10   11 ar   
    22   10   81 1    
    23   11   12 ar   
    24   11   71 1    
    25   12   13 ar   
    26   12   82 1    
    27   13   14 ar   
    28   13   15 1    
    29   14   83 1    
    30   15   16 1    
    31   15   84 1    
    32   15   85 1    
    33   16   17 1    
    34   17   18 1    
    35   17   86 1    
    36   17   87 1    
    37   18   19 1    
    38   18   37 1    
    39   18   88 1    
    40   19   20 am   BACKBONE|DICT|INTERRES
    41   19   89 1    
    42   20   21 2    
    43   20   22 1    
    44   22   23 1    
    45   22   24 1    
    46   22   90 1    
    47   23   91 1    
    48   23   92 1    
    49   23   93 1    
    50   24   25 am   BACKBONE|DICT|INTERRES
    51   24   94 1    
    52   25   26 2    
    53   25   27 1    
    54   27   28 1    
    55   27   29 1    
    56   27   95 1    
    57   28   96 1    
    58   28   97 1    
    59   28   98 1    
    60   29   30 am   BACKBONE|DICT|INTERRES
    61   29   99 1    
    62   30   31 2    
    63   30   32 1    
    64   32   33 1    
    65   32   34 1    
    66   32  100 1    
    67   33  101 1    
    68   33  102 1    
    69   33  103 1    
    70   34   35 am   BACKBONE|DICT|INTERRES
    71   34  104 1    
    72   35   36 2    
    73   37   38 2    
    74   37   39 am   BACKBONE|DICT|INTERRES
    75   39   40 1    
    76   39  105 1    
    77   40   41 1    
    78   40   42 1    
    79   40  106 1    
    80   41  107 1    
    81   41  108 1    
    82   41  109 1    
    83   42   43 2    
    84   42   44 am   BACKBONE|DICT|INTERRES
    85   44   45 1    
    86   44  110 1    
    87   45   46 1    
    88   45   47 1    
    89   45  111 1    
    90   46  112 1    
    91   46  113 1    
    92   46  114 1    
    93   47   48 2    
    94   47   49 am   BACKBONE|DICT|INTERRES
    95   49   50 1    
    96   49  115 1    
    97   50   51 1    
    98   50   52 1    
    99   50  116 1    
   100   51  117 1    
   101   51  118 1    
   102   51  119 1    
   103   52   53 2    
   104   52   54 am   BACKBONE|DICT|INTERRES
   105   54   55 1    
   106   54  120 1    
   107   55   56 1    
   108   55   57 1    
   109   55  121 1    
   110   56  122 1    
   111   56  123 1    
   112   56  124 1    
   113   57   58 2    
   114   57   59 am   BACKBONE|DICT|INTERRES
   115   59   60 1    
   116   59  125 1    
   117   60   61 1    
   118   60   62 1    
   119   60  126 1    
   120   61  127 1    
   121   61  128 1    
   122   61  129 1    
   123   62   63 2    
   124   62   64 am   BACKBONE|DICT|INTERRES
   125   64   65 1    
   126   64  130 1    
   127   65   66 1    
   128   65   69 1    
   129   65  131 1    
   130   66   67 am   BACKBONE|DICT|INTERRES
   131   66   68 2    
   132   67  132 1    
   133   67  133 1    
   134   69   70 1    
   135   69  134 1    
   136   69  135 1    
   137   70   71 1    
   138   71  136 1    
   139   71  137 1    
@<TRIPOS>SUBSTRUCTURE
     1 UNK         1 GROUP             0       ****    0 ROOT    
