@<TRIPOS>MOLECULE
3R137
137   139    1
SMALL
USER_CHARGES


@<TRIPOS>ATOM
      1 CA         26.5718   -5.9445    2.1664 C.3       0 UNK        -0.2020 
      2 C          26.9498   -4.4712    2.2002 C.2       0 UNK         0.4855 
      3 O          27.1793   -3.9210    3.2778 O.2       0 UNK        -0.5197 
      4 N          27.0113   -3.8277    1.0319 N.am      1 UNK        -0.4892 
      5 CA         27.3477   -2.4171    0.8528 C.3       1 UNK         0.0835 
      6 C6         28.8760   -2.1358    0.9721 C.3       12 UNK        -0.0855 
      7 S7         29.9293   -3.0904   -0.1848 S.3       12 UNK        -0.2931 
      8 C8         30.2303   -1.8697   -1.5085 C.3       12 UNK         0.0378 
      9 C9         30.3392   -2.5274   -2.8787 C.ar      12 UNK        -0.0802 
     10 C10        31.4839   -2.3612   -3.6650 C.ar      12 UNK        -0.0944 
     11 C11        31.5635   -2.9439   -4.9349 C.ar      12 UNK        -0.0787 
     12 C12        30.4838   -3.6906   -5.4223 C.ar      12 UNK        -0.0862 
     13 C13        29.3397   -3.8746   -4.6397 C.ar      12 UNK        -0.0733 
     14 C14        29.2746   -3.2847   -3.3759 C.ar      12 UNK        -0.0832 
     15 C15        28.1977   -4.7656   -5.1097 C.3       12 UNK         0.0240 
     16 S16        26.6561   -3.8357   -5.3958 S.3       12 UNK        -0.2522 
     17 C17        26.6324   -3.6527   -7.2163 C.3       12 UNK        -0.0967 
     18 CA         26.4524   -2.1956   -7.7072 C.3       5 UNK         0.0660 
     19 N          25.2798   -1.5435   -7.1135 N.am      5 UNK        -0.4015 
     20 C          24.8328   -0.3097   -7.3788 C.2       4 UNK         0.4946 
     21 O          25.3873    0.4565   -8.1681 O.2       4 UNK        -0.5353 
     22 CA         23.5787    0.1795   -6.6283 C.3       4 UNK         0.0277 
     23 CB         22.3067   -0.1046   -7.4496 C.3       4 UNK        -0.1981 
     24 N          23.4442   -0.2996   -5.2416 N.am      4 UNK        -0.4209 
     25 C          23.2430   -1.5444   -4.7848 C.2       3 UNK         0.4942 
     26 O          23.1523   -2.5318   -5.5158 O.2       3 UNK        -0.5208 
     27 CA         23.2035   -1.7103   -3.2522 C.3       3 UNK         0.0250 
     28 CB         22.8504   -3.1463   -2.8220 C.3       3 UNK        -0.1990 
     29 N          24.4866   -1.3443   -2.6490 N.am      3 UNK        -0.4232 
     30 C          24.9415   -0.1015   -2.4602 C.2       2 UNK         0.4993 
     31 O          24.2710    0.9018   -2.7134 O.2       2 UNK        -0.5286 
     32 CA         26.3934    0.0413   -1.9580 C.3       2 UNK         0.0209 
     33 CB         26.8320    1.5137   -1.8373 C.3       2 UNK        -0.1931 
     34 N          26.6809   -0.6332   -0.6872 N.am      2 UNK        -0.4546 
     35 C          26.7720   -1.9559   -0.4967 C.2       1 UNK         0.5154 
     36 O          26.4672   -2.7943   -1.3508 O.2       1 UNK        -0.5181 
     37 C          27.7520   -1.3813   -7.5672 C.2       5 UNK         0.5014 
     38 O          28.5085   -1.2929   -8.5336 O.2       5 UNK        -0.5248 
     39 N          27.9579   -0.7607   -6.3969 N.am      6 UNK        -0.4434 
     40 CA         29.1016    0.1068   -6.1109 C.3       6 UNK         0.0363 
     41 CB         29.0852    0.5181   -4.6329 C.3       6 UNK        -0.1936 
     42 C          29.1486    1.3590   -6.9989 C.2       6 UNK         0.5081 
     43 O          30.2359    1.7755   -7.3935 O.2       6 UNK        -0.5248 
     44 N          27.9773    1.9304   -7.3090 N.am      7 UNK        -0.4718 
     45 CA         27.8453    3.0747   -8.2100 C.3       7 UNK         0.0273 
     46 CB         26.4969    3.7744   -7.9742 C.3       7 UNK        -0.1935 
     47 C          27.9998    2.6502   -9.6769 C.2       7 UNK         0.5018 
     48 O          28.6918    3.3343  -10.4303 O.2       7 UNK        -0.5186 
     49 N          27.3799    1.5188  -10.0439 N.am      8 UNK        -0.4240 
     50 CA         27.4251    0.9365  -11.3875 C.3       8 UNK         0.0235 
     51 CB         26.4423   -0.2422  -11.4713 C.3       8 UNK        -0.2000 
     52 C          28.8378    0.5021  -11.8147 C.2       8 UNK         0.4941 
     53 O          29.2475    0.8034  -12.9363 O.2       8 UNK        -0.5273 
     54 N          29.5600   -0.1800  -10.9154 N.am      9 UNK        -0.4262 
     55 CA         30.9351   -0.6385  -11.1332 C.3       9 UNK         0.0264 
     56 CB         31.1797   -1.8975  -10.2861 C.3       9 UNK        -0.1955 
     57 C          31.9985    0.4372  -10.8379 C.2       9 UNK         0.5031 
     58 O          33.1662    0.2114  -11.1596 O.2       9 UNK        -0.5390 
     59 N          31.5903    1.5700  -10.2437 N.am      10 UNK        -0.4204 
     60 CA         32.4161    2.7086   -9.8200 C.3       10 UNK         0.0237 
     61 CB         33.0215    3.4376  -11.0388 C.3       10 UNK        -0.1985 
     62 C          33.4654    2.3079   -8.7638 C.2       10 UNK         0.4970 
     63 O          34.6566    2.5791   -8.9291 O.2       10 UNK        -0.4914 
     64 N          32.9886    1.6579   -7.6973 N.am      11 UNK        -0.4285 
     65 CA         33.7875    1.1801   -6.5583 C.3       11 UNK         0.1007 
     66 C          34.2058    2.2978   -5.5598 C.2       11 UNK         0.5703 
     67 N          33.6490    3.5015   -5.6324 N.am      11 UNK        -0.7361 
     68 O          35.0610    2.0695   -4.7076 O.2       11 UNK        -0.4986 
     69 C69        33.0805    0.0134   -5.8183 C.3       12 UNK        -0.0947 
     70 S70        32.7576   -1.4063   -6.9168 S.3       12 UNK        -0.2240 
     71 C71        32.8339   -2.8090   -5.7633 C.3       12 UNK         0.0194 
     72 H72        26.3977   -6.2972    1.1500 H         1 UNK         0.0906 
     73 H73        27.3695   -6.5460    2.6015 H         1 UNK         0.0906 
     74 H74        25.6635   -6.1128    2.7443 H         1 UNK         0.0906 
     75 H75        26.7818   -4.2937    0.1614 H         1 UNK         0.3140 
     76 H76        26.8273   -1.8485    1.6272 H         1 UNK         0.1085 
     77 H77        29.0837   -1.0700    0.8618 H         1 UNK         0.0836 
     78 H78        29.2035   -2.3809    1.9835 H         1 UNK         0.0836 
     79 H79        29.4206   -1.1412   -1.5448 H         1 UNK         0.0731 
     80 H80        31.1353   -1.3090   -1.2695 H         1 UNK         0.0731 
     81 H81        32.3162   -1.7823   -3.2890 H         1 UNK         0.1312 
     82 H82        30.5484   -4.1505   -6.3989 H         1 UNK         0.1406 
     83 H83        28.3935   -3.4332   -2.7694 H         1 UNK         0.1631 
     84 H84        28.0037   -5.5109   -4.3371 H         1 UNK         0.0717 
     85 H85        28.4784   -5.3312   -5.9990 H         1 UNK         0.0717 
     86 H86        27.5286   -4.0924   -7.6581 H         1 UNK         0.0934 
     87 H87        25.8048   -4.2587   -7.5885 H         1 UNK         0.0934 
     88 H88        26.2468   -2.2473   -8.7778 H         1 UNK         0.0739 
     89 H89        24.7225   -2.1100   -6.4789 H         1 UNK         0.3093 
     90 H90        23.6786    1.2634   -6.5501 H         1 UNK         0.0818 
     91 H91        21.4225    0.3131   -6.9684 H         1 UNK         0.0819 
     92 H92        22.3775    0.3437   -8.4417 H         1 UNK         0.0819 
     93 H93        22.1396   -1.1729   -7.5899 H         1 UNK         0.0819 
     94 H94        23.5729    0.4125   -4.5270 H         1 UNK         0.3041 
     95 H95        22.4275   -1.0441   -2.8690 H         1 UNK         0.0784 
     96 H96        21.8908   -3.4552   -3.2387 H         1 UNK         0.0793 
     97 H97        23.6004   -3.8637   -3.1588 H         1 UNK         0.0793 
     98 H98        22.7739   -3.2274   -1.7376 H         1 UNK         0.0793 
     99 H99        25.1085   -2.1082   -2.3904 H         1 UNK         0.3024 
    100 H100       27.0164   -0.4264   -2.7224 H         1 UNK         0.1171 
    101 H101       27.8950    1.5947   -1.6089 H         1 UNK         0.0786 
    102 H102       26.6629    2.0566   -2.7683 H         1 UNK         0.0786 
    103 H103       26.2785    2.0349   -1.0552 H         1 UNK         0.0786 
    104 H104       26.9064   -0.0234    0.0860 H         1 UNK         0.2977 
    105 H105       27.2923   -0.9153   -5.6552 H         1 UNK         0.3127 
    106 H106       30.0051   -0.4748   -6.3001 H         1 UNK         0.0770 
    107 H107       28.2141    1.1286   -4.3973 H         1 UNK         0.0814 
    108 H108       29.9700    1.1041   -4.3809 H         1 UNK         0.0814 
    109 H109       29.0786   -0.3517   -3.9804 H         1 UNK         0.0814 
    110 H110       27.1213    1.4864   -7.0063 H         1 UNK         0.2983 
    111 H111       28.6399    3.7898   -7.9841 H         1 UNK         0.0947 
    112 H112       26.3976    4.6507   -8.6162 H         1 UNK         0.0806 
    113 H113       26.4034    4.1166   -6.9435 H         1 UNK         0.0806 
    114 H114       25.6520    3.1190   -8.1876 H         1 UNK         0.0806 
    115 H115       26.8001    1.0441   -9.3559 H         1 UNK         0.3000 
    116 H116       27.0914    1.7059  -12.0870 H         1 UNK         0.0850 
    117 H117       26.4126   -0.6539  -12.4810 H         1 UNK         0.0810 
    118 H118       25.4283    0.0664  -11.2156 H         1 UNK         0.0810 
    119 H119       26.7252   -1.0511  -10.7979 H         1 UNK         0.0810 
    120 H120       29.1331   -0.4389  -10.0256 H         1 UNK         0.3040 
    121 H121       31.0509   -0.9187  -12.1824 H         1 UNK         0.0766 
    122 H122       31.0435   -1.6954   -9.2244 H         1 UNK         0.0812 
    123 H123       32.1942   -2.2752  -10.4197 H         1 UNK         0.0812 
    124 H124       30.4947   -2.6994  -10.5612 H         1 UNK         0.0812 
    125 H125       30.6094    1.6402  -10.0092 H         1 UNK         0.3205 
    126 H126       31.7374    3.4066   -9.3271 H         1 UNK         0.0754 
    127 H127       33.5442    4.3438  -10.7302 H         1 UNK         0.0769 
    128 H128       32.2466    3.7352  -11.7454 H         1 UNK         0.0769 
    129 H129       33.7401    2.8142  -11.5717 H         1 UNK         0.0769 
    130 H130       31.9801    1.5350   -7.6174 H         1 UNK         0.2981 
    131 H131       34.7217    0.7857   -6.9628 H         1 UNK         0.0541 
    132 H132       32.9411    3.6945   -6.3221 H         1 UNK         0.3459 
    133 H133       33.9335    4.2178   -4.9832 H         1 UNK         0.3459 
    134 H134       32.1344    0.3455   -5.3894 H         1 UNK         0.0612 
    135 H135       33.6937   -0.3294   -4.9832 H         1 UNK         0.0612 
    136 H136       33.7077   -2.7122   -5.1174 H         1 UNK         0.0624 
    137 H137       32.9890   -3.7210   -6.3415 H         1 UNK         0.0624 
@<TRIPOS>BOND
     1    1    2 1    
     2    1   72 1    
     3    1   73 1    
     4    1   74 1    
     5    2    3 2    
     6    2    4 am   BACKBONE|DICT|INTERRES
     7    4    5 1    
     8    4   75 1    
     9    5    6 1    
    10    5   35 1    
    11    5   76 1    
    12    6    7 1    
    13    6   77 1    
    14    6   78 1    
    15    7    8 1    
    16    8    9 1    
    17    8   79 1    
    18    8   80 1    
    19    9   10 ar   
    20    9   14 ar   
    21   10   11 ar   
    22   10   81 1    
    23   11   12 ar   
    24   11   71 1    
    25   12   13 ar   
    26   12   82 1    
    27   13   14 ar   
    28   13   15 1    
    29   14   83 1    
    30   15   16 1    
    31   15   84 1    
    32   15   85 1    
    33   16   17 1    
    34   17   18 1    
    35   17   86 1    
    36   17   87 1    
    37   18   19 1    
    38   18   37 1    
    39   18   88 1    
    40   19   20 am   BACKBONE|DICT|INTERRES
    41   19   89 1    
    42   20   21 2    
    43   20   22 1    
    44   22   23 1    
    45   22   24 1    
    46   22   90 1    
    47   23   91 1    
    48   23   92 1    
    49   23   93 1    
    50   24   25 am   BACKBONE|DICT|INTERRES
    51   24   94 1    
    52   25   26 2    
    53   25   27 1    
    54   27   28 1    
    55   27   29 1    
    56   27   95 1    
    57   28   96 1    
    58   28   97 1    
    59   28   98 1    
    60   29   30 am   BACKBONE|DICT|INTERRES
    61   29   99 1    
    62   30   31 2    
    63   30   32 1    
    64   32   33 1    
    65   32   34 1    
    66   32  100 1    
    67   33  101 1    
    68   33  102 1    
    69   33  103 1    
    70   34   35 am   BACKBONE|DICT|INTERRES
    71   34  104 1    
    72   35   36 2    
    73   37   38 2    
    74   37   39 am   BACKBONE|DICT|INTERRES
    75   39   40 1    
    76   39  105 1    
    77   40   41 1    
    78   40   42 1    
    79   40  106 1    
    80   41  107 1    
    81   41  108 1    
    82   41  109 1    
    83   42   43 2    
    84   42   44 am   BACKBONE|DICT|INTERRES
    85   44   45 1    
    86   44  110 1    
    87   45   46 1    
    88   45   47 1    
    89   45  111 1    
    90   46  112 1    
    91   46  113 1    
    92   46  114 1    
    93   47   48 2    
    94   47   49 am   BACKBONE|DICT|INTERRES
    95   49   50 1    
    96   49  115 1    
    97   50   51 1    
    98   50   52 1    
    99   50  116 1    
   100   51  117 1    
   101   51  118 1    
   102   51  119 1    
   103   52   53 2    
   104   52   54 am   BACKBONE|DICT|INTERRES
   105   54   55 1    
   106   54  120 1    
   107   55   56 1    
   108   55   57 1    
   109   55  121 1    
   110   56  122 1    
   111   56  123 1    
   112   56  124 1    
   113   57   58 2    
   114   57   59 am   BACKBONE|DICT|INTERRES
   115   59   60 1    
   116   59  125 1    
   117   60   61 1    
   118   60   62 1    
   119   60  126 1    
   120   61  127 1    
   121   61  128 1    
   122   61  129 1    
   123   62   63 2    
   124   62   64 am   BACKBONE|DICT|INTERRES
   125   64   65 1    
   126   64  130 1    
   127   65   66 1    
   128   65   69 1    
   129   65  131 1    
   130   66   67 am   BACKBONE|DICT|INTERRES
   131   66   68 2    
   132   67  132 1    
   133   67  133 1    
   134   69   70 1    
   135   69  134 1    
   136   69  135 1    
   137   70   71 1    
   138   71  136 1    
   139   71  137 1    
@<TRIPOS>SUBSTRUCTURE
     1 UNK         1 GROUP             0       ****    0 ROOT    
