@<TRIPOS>MOLECULE
3R137
137   139    1
SMALL
USER_CHARGES


@<TRIPOS>ATOM
      1 CA         26.1630   -8.8375   -1.0834 C.3       0 UNK        -0.2020 
      2 C          25.6771   -7.6153   -0.3192 C.2       0 UNK         0.4855 
      3 O          24.5330   -7.5907    0.1348 O.2       0 UNK        -0.5197 
      4 N          26.5357   -6.5979   -0.1755 N.am      1 UNK        -0.4892 
      5 CA         26.2386   -5.3354    0.5150 C.3       1 UNK         0.0835 
      6 C6         27.5317   -4.6459    1.0263 C.3       12 UNK        -0.0855 
      7 S7         28.7897   -4.3327   -0.2651 S.3       12 UNK        -0.2931 
      8 C8         28.6337   -2.5240   -0.4889 C.3       12 UNK         0.0378 
      9 C9         29.6184   -1.8933   -1.4798 C.ar      12 UNK        -0.0802 
     10 C10        30.3208   -2.6377   -2.4382 C.ar      12 UNK        -0.0944 
     11 C11        31.2552   -2.0336   -3.2872 C.ar      12 UNK        -0.0787 
     12 C12        31.4615   -0.6505   -3.1903 C.ar      12 UNK        -0.0862 
     13 C13        30.7502    0.1126   -2.2604 C.ar      12 UNK        -0.0733 
     14 C14        29.8305   -0.5133   -1.4151 C.ar      12 UNK        -0.0832 
     15 C15        31.0078    1.6061   -2.1243 C.3       12 UNK         0.0240 
     16 S16        29.8868    2.5898   -3.1655 S.3       12 UNK        -0.2522 
     17 C17        30.7708    2.5984   -4.7677 C.3       12 UNK        -0.0967 
     18 CA         29.8839    2.2291   -5.9810 C.3       5 UNK         0.0660 
     19 N          29.2194    0.9361   -5.8120 N.am      5 UNK        -0.4015 
     20 C          28.6109    0.2578   -6.7935 C.2       4 UNK         0.4946 
     21 O          28.6077    0.6137   -7.9703 O.2       4 UNK        -0.5353 
     22 CA         27.8317   -1.0056   -6.3960 C.3       4 UNK         0.0277 
     23 CB         28.7258   -2.2490   -6.4963 C.3       4 UNK        -0.1981 
     24 N          27.2415   -0.9441   -5.0578 N.am      4 UNK        -0.4209 
     25 C          26.3896   -0.0141   -4.6115 C.2       3 UNK         0.4942 
     26 O          26.0002    0.9348   -5.2952 O.2       3 UNK        -0.5208 
     27 CA         25.9210   -0.1695   -3.1522 C.3       3 UNK         0.0250 
     28 CB         25.1451    1.0628   -2.6517 C.3       3 UNK        -0.1990 
     29 N          25.1043   -1.3692   -2.9377 N.am      3 UNK        -0.4232 
     30 C          25.5617   -2.6282   -2.9339 C.2       2 UNK         0.4993 
     31 O          26.7267   -2.9371   -3.1961 O.2       2 UNK        -0.5286 
     32 CA         24.5632   -3.7374   -2.5758 C.3       2 UNK         0.0209 
     33 CB         24.1493   -4.5231   -3.8306 C.3       2 UNK        -0.1931 
     34 N          25.1825   -4.6496   -1.6143 N.am      2 UNK        -0.4546 
     35 C          25.3657   -4.3679   -0.3163 C.2       1 UNK         0.5154 
     36 O          24.8846   -3.3739    0.2314 O.2       1 UNK        -0.5181 
     37 C          28.9075    3.3687   -6.3440 C.2       5 UNK         0.5014 
     38 O          29.2606    4.2206   -7.1602 O.2       5 UNK        -0.5248 
     39 N          27.6999    3.3604   -5.7596 N.am      6 UNK        -0.4434 
     40 CA         26.6428    4.3365   -6.0367 C.3       6 UNK         0.0363 
     41 CB         25.6314    4.3520   -4.8793 C.3       6 UNK        -0.1936 
     42 C          25.9413    4.0455   -7.3715 C.2       6 UNK         0.5081 
     43 O          25.5825    4.9811   -8.0865 O.2       6 UNK        -0.5248 
     44 N          25.7898    2.7545   -7.6981 N.am      7 UNK        -0.4718 
     45 CA         25.2684    2.2720   -8.9803 C.3       7 UNK         0.0273 
     46 CB         24.8908    0.7891   -8.8316 C.3       7 UNK        -0.1935 
     47 C          26.2510    2.4532  -10.1550 C.2       7 UNK         0.5018 
     48 O          25.8248    2.3514  -11.3059 O.2       7 UNK        -0.5186 
     49 N          27.5368    2.6836   -9.8444 N.am      8 UNK        -0.4240 
     50 CA         28.6914    2.7338  -10.7510 C.3       8 UNK         0.0235 
     51 CB         28.5799    3.9126  -11.7407 C.3       8 UNK        -0.2000 
     52 C          28.9556    1.3823  -11.4455 C.2       8 UNK         0.4941 
     53 O          29.4374    1.3458  -12.5797 O.2       8 UNK        -0.5273 
     54 N          28.6583    0.2842  -10.7408 N.am      9 UNK        -0.4262 
     55 CA         28.8196   -1.0941  -11.1932 C.3       9 UNK         0.0264 
     56 CB         27.7410   -1.9636  -10.5209 C.3       9 UNK        -0.1955 
     57 C          30.2469   -1.5725  -10.8894 C.2       9 UNK         0.5031 
     58 O          30.4428   -2.4228  -10.0193 O.2       9 UNK        -0.5390 
     59 N          31.2248   -0.9636  -11.5753 N.am      10 UNK        -0.4204 
     60 CA         32.6802   -1.1846  -11.5190 C.3       10 UNK         0.0237 
     61 CB         33.0407   -2.6246  -11.9342 C.3       10 UNK        -0.1985 
     62 C          33.3637   -0.8137  -10.1867 C.2       10 UNK         0.4970 
     63 O          34.5100   -0.3653  -10.2155 O.2       10 UNK        -0.4914 
     64 N          32.6690   -0.9912   -9.0577 N.am      11 UNK        -0.4285 
     65 CA         33.1404   -0.6944   -7.6957 C.3       11 UNK         0.1007 
     66 C          33.2846    0.8199   -7.3527 C.2       11 UNK         0.5703 
     67 N          32.8838    1.7431   -8.2192 N.am      11 UNK        -0.7361 
     68 O          33.7750    1.1666   -6.2817 O.2       11 UNK        -0.4986 
     69 C69        32.2926   -1.4585   -6.6389 C.3       12 UNK        -0.0947 
     70 S70        33.3071   -2.1245   -5.2802 S.3       12 UNK        -0.2240 
     71 C71        32.0371   -2.9367   -4.2480 C.3       12 UNK         0.0194 
     72 H72        26.1155   -9.7208   -0.4470 H         1 UNK         0.0906 
     73 H73        25.5319   -9.0110   -1.9546 H         1 UNK         0.0906 
     74 H74        27.1910   -8.7225   -1.4267 H         1 UNK         0.0906 
     75 H75        27.4661   -6.6606   -0.5676 H         1 UNK         0.3140 
     76 H76        25.6403   -5.5773    1.3968 H         1 UNK         0.1085 
     77 H77        27.9965   -5.2828    1.7806 H         1 UNK         0.0836 
     78 H78        27.2943   -3.7172    1.5493 H         1 UNK         0.0836 
     79 H79        28.7718   -2.0557    0.4870 H         1 UNK         0.0731 
     80 H80        27.6173   -2.2862   -0.8002 H         1 UNK         0.0731 
     81 H81        30.1633   -3.7039   -2.5167 H         1 UNK         0.1312 
     82 H82        32.1892   -0.1586   -3.8186 H         1 UNK         0.1406 
     83 H83        29.2923    0.0774   -0.6856 H         1 UNK         0.1631 
     84 H84        32.0461    1.8426   -2.3622 H         1 UNK         0.0717 
     85 H85        30.8663    1.9082   -1.0854 H         1 UNK         0.0717 
     86 H86        31.2247    3.5816   -4.9081 H         1 UNK         0.0934 
     87 H87        31.6108    1.9058   -4.7228 H         1 UNK         0.0934 
     88 H88        30.5465    2.1241   -6.8411 H         1 UNK         0.0739 
     89 H89        29.1721    0.5777   -4.8690 H         1 UNK         0.3093 
     90 H90        27.0115   -1.1178   -7.1062 H         1 UNK         0.0818 
     91 H91        29.2249   -2.3037   -7.4648 H         1 UNK         0.0819 
     92 H92        29.4974   -2.2448   -5.7279 H         1 UNK         0.0819 
     93 H93        28.1450   -3.1640   -6.3789 H         1 UNK         0.0819 
     94 H94        27.4254   -1.7276   -4.4331 H         1 UNK         0.3041 
     95 H95        26.8207   -0.2596   -2.5388 H         1 UNK         0.0784 
     96 H96        25.7482    1.9670   -2.7456 H         1 UNK         0.0793 
     97 H97        24.2270    1.2217   -3.2191 H         1 UNK         0.0793 
     98 H98        24.8781    0.9645   -1.5993 H         1 UNK         0.0793 
     99 H99        24.1254   -1.2084   -2.7477 H         1 UNK         0.3024 
    100 H100       23.6712   -3.2971   -2.1241 H         1 UNK         0.1171 
    101 H101       23.4418   -5.3159   -3.5867 H         1 UNK         0.0786 
    102 H102       23.6657   -3.8694   -4.5578 H         1 UNK         0.0786 
    103 H103       25.0085   -4.9798   -4.3241 H         1 UNK         0.0786 
    104 H104       25.6536   -5.4591   -1.9902 H         1 UNK         0.2977 
    105 H105       27.4533    2.5893   -5.1527 H         1 UNK         0.3127 
    106 H106       27.0950    5.3286   -6.1037 H         1 UNK         0.0770 
    107 H107       25.1051    3.4018   -4.7855 H         1 UNK         0.0814 
    108 H108       24.8773    5.1245   -5.0355 H         1 UNK         0.0814 
    109 H109       26.1190    4.5627   -3.9274 H         1 UNK         0.0814 
    110 H110       26.0478    2.0530   -7.0105 H         1 UNK         0.2983 
    111 H111       24.3647    2.8376   -9.2180 H         1 UNK         0.0947 
    112 H112       25.7680    0.1696   -8.6457 H         1 UNK         0.0806 
    113 H113       24.4163    0.4144   -9.7396 H         1 UNK         0.0806 
    114 H114       24.1895    0.6352   -8.0111 H         1 UNK         0.0806 
    115 H115       27.7660    2.6996   -8.8593 H         1 UNK         0.3000 
    116 H116       29.5595    2.9184  -10.1162 H         1 UNK         0.0850 
    117 H117       28.3930    4.8513  -11.2191 H         1 UNK         0.0810 
    118 H118       27.7767    3.7629  -12.4626 H         1 UNK         0.0810 
    119 H119       29.5041    4.0354  -12.3066 H         1 UNK         0.0810 
    120 H120       28.4112    0.4079   -9.7593 H         1 UNK         0.3040 
    121 H121       28.6694   -1.1486  -12.2737 H         1 UNK         0.0766 
    122 H122       27.8328   -3.0065  -10.8270 H         1 UNK         0.0812 
    123 H123       26.7394   -1.6313  -10.7943 H         1 UNK         0.0812 
    124 H124       27.8160   -1.9337   -9.4341 H         1 UNK         0.0812 
    125 H125       30.9270   -0.2278  -12.2079 H         1 UNK         0.3205 
    126 H126       33.1015   -0.5154  -12.2711 H         1 UNK         0.0754 
    127 H127       34.1224   -2.7543  -11.9915 H         1 UNK         0.0769 
    128 H128       32.6336   -2.8680  -12.9157 H         1 UNK         0.0769 
    129 H129       32.6646   -3.3610  -11.2231 H         1 UNK         0.0769 
    130 H130       31.7522   -1.4215   -9.1436 H         1 UNK         0.2981 
    131 H131       34.1578   -1.0882   -7.6571 H         1 UNK         0.0541 
    132 H132       33.0044    2.7169   -7.9918 H         1 UNK         0.3459 
    133 H133       32.5020    1.4739   -9.1103 H         1 UNK         0.3459 
    134 H134       31.4986   -0.8314   -6.2313 H         1 UNK         0.0612 
    135 H135       31.7920   -2.3134   -7.0967 H         1 UNK         0.0612 
    136 H136       32.5453   -3.6967   -3.6530 H         1 UNK         0.0624 
    137 H137       31.3423   -3.4750   -4.8935 H         1 UNK         0.0624 
@<TRIPOS>BOND
     1    1    2 1    
     2    1   72 1    
     3    1   73 1    
     4    1   74 1    
     5    2    3 2    
     6    2    4 am   BACKBONE|DICT|INTERRES
     7    4    5 1    
     8    4   75 1    
     9    5    6 1    
    10    5   35 1    
    11    5   76 1    
    12    6    7 1    
    13    6   77 1    
    14    6   78 1    
    15    7    8 1    
    16    8    9 1    
    17    8   79 1    
    18    8   80 1    
    19    9   10 ar   
    20    9   14 ar   
    21   10   11 ar   
    22   10   81 1    
    23   11   12 ar   
    24   11   71 1    
    25   12   13 ar   
    26   12   82 1    
    27   13   14 ar   
    28   13   15 1    
    29   14   83 1    
    30   15   16 1    
    31   15   84 1    
    32   15   85 1    
    33   16   17 1    
    34   17   18 1    
    35   17   86 1    
    36   17   87 1    
    37   18   19 1    
    38   18   37 1    
    39   18   88 1    
    40   19   20 am   BACKBONE|DICT|INTERRES
    41   19   89 1    
    42   20   21 2    
    43   20   22 1    
    44   22   23 1    
    45   22   24 1    
    46   22   90 1    
    47   23   91 1    
    48   23   92 1    
    49   23   93 1    
    50   24   25 am   BACKBONE|DICT|INTERRES
    51   24   94 1    
    52   25   26 2    
    53   25   27 1    
    54   27   28 1    
    55   27   29 1    
    56   27   95 1    
    57   28   96 1    
    58   28   97 1    
    59   28   98 1    
    60   29   30 am   BACKBONE|DICT|INTERRES
    61   29   99 1    
    62   30   31 2    
    63   30   32 1    
    64   32   33 1    
    65   32   34 1    
    66   32  100 1    
    67   33  101 1    
    68   33  102 1    
    69   33  103 1    
    70   34   35 am   BACKBONE|DICT|INTERRES
    71   34  104 1    
    72   35   36 2    
    73   37   38 2    
    74   37   39 am   BACKBONE|DICT|INTERRES
    75   39   40 1    
    76   39  105 1    
    77   40   41 1    
    78   40   42 1    
    79   40  106 1    
    80   41  107 1    
    81   41  108 1    
    82   41  109 1    
    83   42   43 2    
    84   42   44 am   BACKBONE|DICT|INTERRES
    85   44   45 1    
    86   44  110 1    
    87   45   46 1    
    88   45   47 1    
    89   45  111 1    
    90   46  112 1    
    91   46  113 1    
    92   46  114 1    
    93   47   48 2    
    94   47   49 am   BACKBONE|DICT|INTERRES
    95   49   50 1    
    96   49  115 1    
    97   50   51 1    
    98   50   52 1    
    99   50  116 1    
   100   51  117 1    
   101   51  118 1    
   102   51  119 1    
   103   52   53 2    
   104   52   54 am   BACKBONE|DICT|INTERRES
   105   54   55 1    
   106   54  120 1    
   107   55   56 1    
   108   55   57 1    
   109   55  121 1    
   110   56  122 1    
   111   56  123 1    
   112   56  124 1    
   113   57   58 2    
   114   57   59 am   BACKBONE|DICT|INTERRES
   115   59   60 1    
   116   59  125 1    
   117   60   61 1    
   118   60   62 1    
   119   60  126 1    
   120   61  127 1    
   121   61  128 1    
   122   61  129 1    
   123   62   63 2    
   124   62   64 am   BACKBONE|DICT|INTERRES
   125   64   65 1    
   126   64  130 1    
   127   65   66 1    
   128   65   69 1    
   129   65  131 1    
   130   66   67 am   BACKBONE|DICT|INTERRES
   131   66   68 2    
   132   67  132 1    
   133   67  133 1    
   134   69   70 1    
   135   69  134 1    
   136   69  135 1    
   137   70   71 1    
   138   71  136 1    
   139   71  137 1    
@<TRIPOS>SUBSTRUCTURE
     1 UNK         1 GROUP             0       ****    0 ROOT    
