@<TRIPOS>MOLECULE
3R137
137   139    1
SMALL
USER_CHARGES


@<TRIPOS>ATOM
      1 CA         23.9706   -5.6724   -3.8515 C.3       0 UNK        -0.2020 
      2 C          24.6360   -4.8420   -2.7649 C.2       0 UNK         0.4855 
      3 O          23.9553   -4.0976   -2.0588 O.2       0 UNK        -0.5197 
      4 N          25.9646   -4.9557   -2.6378 N.am      1 UNK        -0.4892 
      5 CA         26.8126   -4.2369   -1.6791 C.3       1 UNK         0.0835 
      6 C6         28.2748   -4.7307   -1.7912 C.3       12 UNK        -0.0855 
      7 S7         29.3380   -4.1474   -0.4292 S.3       12 UNK        -0.2931 
      8 C8         30.9553   -4.0455   -1.2629 C.3       12 UNK         0.0378 
      9 C9         31.0166   -2.9159   -2.2834 C.ar      12 UNK        -0.0802 
     10 C10        31.0698   -3.1967   -3.6531 C.ar      12 UNK        -0.0944 
     11 C11        31.1659   -2.1591   -4.5850 C.ar      12 UNK        -0.0787 
     12 C12        31.2208   -0.8373   -4.1390 C.ar      12 UNK        -0.0862 
     13 C13        31.1262   -0.5386   -2.7762 C.ar      12 UNK        -0.0733 
     14 C14        31.0372   -1.5857   -1.8536 C.ar      12 UNK        -0.0832 
     15 C15        31.1087    0.9063   -2.2833 C.3       12 UNK         0.0240 
     16 S16        30.0673    2.0318   -3.2803 S.3       12 UNK        -0.2522 
     17 C17        28.4862    1.1260   -3.4150 C.3       12 UNK        -0.0967 
     18 CA         28.1218    0.8441   -4.8978 C.3       5 UNK         0.0660 
     19 N          27.4122   -0.4272   -5.0681 N.am      5 UNK        -0.4015 
     20 C          27.0587   -0.9664   -6.2450 C.2       4 UNK         0.4946 
     21 O          27.3437   -0.4831   -7.3384 O.2       4 UNK        -0.5353 
     22 CA         26.1668   -2.2159   -6.1967 C.3       4 UNK         0.0277 
     23 CB         26.9956   -3.4915   -5.9695 C.3       4 UNK        -0.1981 
     24 N          25.1288   -2.0801   -5.1721 N.am      4 UNK        -0.4209 
     25 C          24.0798   -1.2492   -5.2809 C.2       3 UNK         0.4942 
     26 O          23.8269   -0.6021   -6.2963 O.2       3 UNK        -0.5208 
     27 CA         23.1891   -1.0679   -4.0400 C.3       3 UNK         0.0250 
     28 CB         22.0149   -2.0586   -4.0558 C.3       3 UNK        -0.1990 
     29 N          23.9386   -1.1937   -2.7868 N.am      3 UNK        -0.4232 
     30 C          24.8151   -0.2751   -2.3514 C.2       2 UNK         0.4993 
     31 O          25.0387    0.7827   -2.9395 O.2       2 UNK        -0.5286 
     32 CA         25.6254   -0.6123   -1.0862 C.3       2 UNK         0.0209 
     33 CB         24.8710   -0.1614    0.1740 C.3       2 UNK        -0.1931 
     34 N          25.9652   -2.0346   -0.9741 N.am      2 UNK        -0.4546 
     35 C          26.6896   -2.7108   -1.8764 C.2       1 UNK         0.5154 
     36 O          27.1810   -2.1848   -2.8758 O.2       1 UNK        -0.5181 
     37 C          27.3625    2.0314   -5.5271 C.2       5 UNK         0.5014 
     38 O          27.9711    2.8466   -6.2204 O.2       5 UNK        -0.5248 
     39 N          26.0420    2.0911   -5.3003 N.am      6 UNK        -0.4434 
     40 CA         25.1419    3.0763   -5.9030 C.3       6 UNK         0.0363 
     41 CB         23.7524    2.9664   -5.2557 C.3       6 UNK        -0.1936 
     42 C          25.0375    2.9508   -7.4343 C.2       6 UNK         0.5081 
     43 O          24.9268    3.9733   -8.1116 O.2       6 UNK        -0.5248 
     44 N          25.0711    1.7148   -7.9527 N.am      7 UNK        -0.4718 
     45 CA         25.0449    1.4204   -9.3861 C.3       7 UNK         0.0273 
     46 CB         24.6632   -0.0519   -9.6124 C.3       7 UNK        -0.1935 
     47 C          26.3725    1.7638  -10.0824 C.2       7 UNK         0.5018 
     48 O          26.3530    2.4656  -11.0950 O.2       7 UNK        -0.5186 
     49 N          27.4936    1.2731   -9.5384 N.am      8 UNK        -0.4240 
     50 CA         28.8385    1.4784  -10.0706 C.3       8 UNK         0.0235 
     51 CB         29.0732    0.5862  -11.3076 C.3       8 UNK        -0.2000 
     52 C          29.8620    1.1917   -8.9669 C.2       8 UNK         0.4941 
     53 O          30.2104    0.0312   -8.7470 O.2       8 UNK        -0.5273 
     54 N          30.3336    2.2526   -8.2973 N.am      9 UNK        -0.4262 
     55 CA         31.3125    2.1836   -7.2061 C.3       9 UNK         0.0264 
     56 CB         31.4636    3.5687   -6.5577 C.3       9 UNK        -0.1955 
     57 C          32.6862    1.6345   -7.6269 C.2       9 UNK         0.5031 
     58 O          33.3472    0.9766   -6.8230 O.2       9 UNK        -0.5390 
     59 N          33.0850    1.8871   -8.8804 N.am      10 UNK        -0.4204 
     60 CA         34.3331    1.4178   -9.4870 C.3       10 UNK         0.0237 
     61 CB         34.7355    2.3934  -10.6098 C.3       10 UNK        -0.1985 
     62 C          34.2287   -0.0424   -9.9753 C.2       10 UNK         0.4970 
     63 O          34.5427   -0.3271  -11.1327 O.2       10 UNK        -0.4914 
     64 N          33.7817   -0.9414   -9.0913 N.am      11 UNK        -0.4285 
     65 CA         33.6504   -2.3845   -9.3463 C.3       11 UNK         0.1007 
     66 C          34.9896   -3.1800   -9.3338 C.2       11 UNK         0.5703 
     67 N          36.1086   -2.5988   -8.9161 N.am      11 UNK        -0.7361 
     68 O          35.0161   -4.3434   -9.7289 O.2       11 UNK        -0.4986 
     69 C69        32.5693   -3.0329   -8.4415 C.3       12 UNK        -0.0947 
     70 S70        32.8715   -2.8195   -6.6528 S.3       12 UNK        -0.2240 
     71 C71        31.1881   -2.4564   -6.0748 C.3       12 UNK         0.0194 
     72 H72        23.0578   -6.1292   -3.4698 H         1 UNK         0.0906 
     73 H73        23.7081   -5.0424   -4.7008 H         1 UNK         0.0906 
     74 H74        24.6216   -6.4704   -4.2079 H         1 UNK         0.0906 
     75 H75        26.4580   -5.5781   -3.2618 H         1 UNK         0.3140 
     76 H76        26.4485   -4.4868   -0.6802 H         1 UNK         0.1085 
     77 H77        28.6991   -4.4413   -2.7537 H         1 UNK         0.0836 
     78 H78        28.3017   -5.8214   -1.7700 H         1 UNK         0.0836 
     79 H79        31.1806   -5.0056   -1.7301 H         1 UNK         0.0731 
     80 H80        31.7286   -3.8862   -0.5100 H         1 UNK         0.0731 
     81 H81        31.0415   -4.2217   -3.9968 H         1 UNK         0.1312 
     82 H82        31.3132   -0.0374   -4.8581 H         1 UNK         0.1406 
     83 H83        30.9777   -1.3702   -0.7952 H         1 UNK         0.1631 
     84 H84        32.1304    1.2875   -2.2781 H         1 UNK         0.0717 
     85 H85        30.7570    0.9506   -1.2514 H         1 UNK         0.0717 
     86 H86        28.5669    0.1915   -2.8590 H         1 UNK         0.0934 
     87 H87        27.7054    1.6917   -2.9024 H         1 UNK         0.0934 
     88 H88        29.0423    0.7203   -5.4683 H         1 UNK         0.0739 
     89 H89        27.2025   -0.9505   -4.2202 H         1 UNK         0.3093 
     90 H90        25.6729   -2.3104   -7.1663 H         1 UNK         0.0818 
     91 H91        27.5731   -3.4544   -5.0466 H         1 UNK         0.0819 
     92 H92        26.3612   -4.3770   -5.9357 H         1 UNK         0.0819 
     93 H93        27.7072   -3.6346   -6.7838 H         1 UNK         0.0819 
     94 H94        25.3089   -2.5195   -4.2811 H         1 UNK         0.3041 
     95 H95        22.7721   -0.0593   -4.0819 H         1 UNK         0.0784 
     96 H96        21.4173   -1.9373   -4.9604 H         1 UNK         0.0793 
     97 H97        22.3524   -3.0938   -4.0269 H         1 UNK         0.0793 
     98 H98        21.3510   -1.8995   -3.2059 H         1 UNK         0.0793 
     99 H99        23.8419   -2.0672   -2.2769 H         1 UNK         0.3024 
    100 H100       26.5618   -0.0531   -1.1436 H         1 UNK         0.1171 
    101 H101       25.4731   -0.3078    1.0710 H         1 UNK         0.0786 
    102 H102       24.6243    0.9002    0.1214 H         1 UNK         0.0786 
    103 H103       23.9356   -0.7075    0.3031 H         1 UNK         0.0786 
    104 H104       25.5525   -2.5407   -0.2033 H         1 UNK         0.2977 
    105 H105       25.6303    1.4394   -4.6361 H         1 UNK         0.3127 
    106 H106       25.5431    4.0673   -5.6805 H         1 UNK         0.0770 
    107 H107       23.2962    1.9944   -5.4444 H         1 UNK         0.0814 
    108 H108       23.0770    3.7257   -5.6520 H         1 UNK         0.0814 
    109 H109       23.8039    3.1088   -4.1760 H         1 UNK         0.0814 
    110 H110       25.1249    0.9227   -7.3235 H         1 UNK         0.2983 
    111 H111       24.2665    2.0368   -9.8415 H         1 UNK         0.0947 
    112 H112       24.6048   -0.2795  -10.6776 H         1 UNK         0.0806 
    113 H113       23.6896   -0.2792   -9.1777 H         1 UNK         0.0806 
    114 H114       25.3906   -0.7346   -9.1734 H         1 UNK         0.0806 
    115 H115       27.4328    0.6928   -8.6989 H         1 UNK         0.3000 
    116 H116       28.9439    2.5220  -10.3750 H         1 UNK         0.0850 
    117 H117       30.0991    0.6785  -11.6665 H         1 UNK         0.0810 
    118 H118       28.4167    0.8633  -12.1323 H         1 UNK         0.0810 
    119 H119       28.8996   -0.4668  -11.0819 H         1 UNK         0.0810 
    120 H120       29.9551    3.1660   -8.5049 H         1 UNK         0.3040 
    121 H121       30.9130    1.5034   -6.4560 H         1 UNK         0.0766 
    122 H122       30.5138    3.9244   -6.1578 H         1 UNK         0.0812 
    123 H123       31.8321    4.3115   -7.2660 H         1 UNK         0.0812 
    124 H124       32.1666    3.5328   -5.7242 H         1 UNK         0.0812 
    125 H125       32.4579    2.4036   -9.4796 H         1 UNK         0.3205 
    126 H126       35.1215    1.4433   -8.7316 H         1 UNK         0.0754 
    127 H127       35.6929    2.1110  -11.0501 H         1 UNK         0.0769 
    128 H128       34.8451    3.4101  -10.2315 H         1 UNK         0.0769 
    129 H129       33.9985    2.4115  -11.4137 H         1 UNK         0.0769 
    130 H130       33.5513   -0.6279   -8.1547 H         1 UNK         0.2981 
    131 H131       33.2822   -2.4866  -10.3689 H         1 UNK         0.0541 
    132 H132       36.0967   -1.6490   -8.5823 H         1 UNK         0.3459 
    133 H133       36.9689   -3.1236   -8.9202 H         1 UNK         0.3459 
    134 H134       31.6001   -2.5975   -8.6908 H         1 UNK         0.0612 
    135 H135       32.4718   -4.0993   -8.6524 H         1 UNK         0.0612 
    136 H136       30.5373   -3.3037   -6.2961 H         1 UNK         0.0624 
    137 H137       30.7884   -1.6061   -6.6301 H         1 UNK         0.0624 
@<TRIPOS>BOND
     1    1    2 1    
     2    1   72 1    
     3    1   73 1    
     4    1   74 1    
     5    2    3 2    
     6    2    4 am   BACKBONE|DICT|INTERRES
     7    4    5 1    
     8    4   75 1    
     9    5    6 1    
    10    5   35 1    
    11    5   76 1    
    12    6    7 1    
    13    6   77 1    
    14    6   78 1    
    15    7    8 1    
    16    8    9 1    
    17    8   79 1    
    18    8   80 1    
    19    9   10 ar   
    20    9   14 ar   
    21   10   11 ar   
    22   10   81 1    
    23   11   12 ar   
    24   11   71 1    
    25   12   13 ar   
    26   12   82 1    
    27   13   14 ar   
    28   13   15 1    
    29   14   83 1    
    30   15   16 1    
    31   15   84 1    
    32   15   85 1    
    33   16   17 1    
    34   17   18 1    
    35   17   86 1    
    36   17   87 1    
    37   18   19 1    
    38   18   37 1    
    39   18   88 1    
    40   19   20 am   BACKBONE|DICT|INTERRES
    41   19   89 1    
    42   20   21 2    
    43   20   22 1    
    44   22   23 1    
    45   22   24 1    
    46   22   90 1    
    47   23   91 1    
    48   23   92 1    
    49   23   93 1    
    50   24   25 am   BACKBONE|DICT|INTERRES
    51   24   94 1    
    52   25   26 2    
    53   25   27 1    
    54   27   28 1    
    55   27   29 1    
    56   27   95 1    
    57   28   96 1    
    58   28   97 1    
    59   28   98 1    
    60   29   30 am   BACKBONE|DICT|INTERRES
    61   29   99 1    
    62   30   31 2    
    63   30   32 1    
    64   32   33 1    
    65   32   34 1    
    66   32  100 1    
    67   33  101 1    
    68   33  102 1    
    69   33  103 1    
    70   34   35 am   BACKBONE|DICT|INTERRES
    71   34  104 1    
    72   35   36 2    
    73   37   38 2    
    74   37   39 am   BACKBONE|DICT|INTERRES
    75   39   40 1    
    76   39  105 1    
    77   40   41 1    
    78   40   42 1    
    79   40  106 1    
    80   41  107 1    
    81   41  108 1    
    82   41  109 1    
    83   42   43 2    
    84   42   44 am   BACKBONE|DICT|INTERRES
    85   44   45 1    
    86   44  110 1    
    87   45   46 1    
    88   45   47 1    
    89   45  111 1    
    90   46  112 1    
    91   46  113 1    
    92   46  114 1    
    93   47   48 2    
    94   47   49 am   BACKBONE|DICT|INTERRES
    95   49   50 1    
    96   49  115 1    
    97   50   51 1    
    98   50   52 1    
    99   50  116 1    
   100   51  117 1    
   101   51  118 1    
   102   51  119 1    
   103   52   53 2    
   104   52   54 am   BACKBONE|DICT|INTERRES
   105   54   55 1    
   106   54  120 1    
   107   55   56 1    
   108   55   57 1    
   109   55  121 1    
   110   56  122 1    
   111   56  123 1    
   112   56  124 1    
   113   57   58 2    
   114   57   59 am   BACKBONE|DICT|INTERRES
   115   59   60 1    
   116   59  125 1    
   117   60   61 1    
   118   60   62 1    
   119   60  126 1    
   120   61  127 1    
   121   61  128 1    
   122   61  129 1    
   123   62   63 2    
   124   62   64 am   BACKBONE|DICT|INTERRES
   125   64   65 1    
   126   64  130 1    
   127   65   66 1    
   128   65   69 1    
   129   65  131 1    
   130   66   67 am   BACKBONE|DICT|INTERRES
   131   66   68 2    
   132   67  132 1    
   133   67  133 1    
   134   69   70 1    
   135   69  134 1    
   136   69  135 1    
   137   70   71 1    
   138   71  136 1    
   139   71  137 1    
@<TRIPOS>SUBSTRUCTURE
     1 UNK         1 GROUP             0       ****    0 ROOT    
