@<TRIPOS>MOLECULE
3R137
137   139    1
SMALL
USER_CHARGES


@<TRIPOS>ATOM
      1 CA         25.2203   -5.8274   -5.4283 C.3       0 UNK        -0.2020 
      2 C          25.7365   -5.0020   -4.2598 C.2       0 UNK         0.4855 
      3 O          26.0314   -3.8226   -4.4463 O.2       0 UNK        -0.5197 
      4 N          25.8301   -5.6175   -3.0708 N.am      1 UNK        -0.4892 
      5 CA         26.2974   -5.0671   -1.7876 C.3       1 UNK         0.0835 
      6 C6         27.8193   -5.2962   -1.5342 C.3       12 UNK        -0.0855 
      7 S7         28.9936   -4.4242   -2.6376 S.3       12 UNK        -0.2931 
      8 C8         30.3369   -4.0547   -1.4639 C.3       12 UNK         0.0378 
      9 C9         31.3081   -3.0293   -2.0271 C.ar      12 UNK        -0.0802 
     10 C10        32.5067   -3.4312   -2.6263 C.ar      12 UNK        -0.0944 
     11 C11        33.4090   -2.4808   -3.1187 C.ar      12 UNK        -0.0787 
     12 C12        33.1017   -1.1215   -3.0057 C.ar      12 UNK        -0.0862 
     13 C13        31.9024   -0.7087   -2.4176 C.ar      12 UNK        -0.0733 
     14 C14        31.0142   -1.6671   -1.9228 C.ar      12 UNK        -0.0832 
     15 C15        31.5726    0.7729   -2.3045 C.3       12 UNK         0.0240 
     16 S16        30.9506    1.4564   -3.8729 S.3       12 UNK        -0.2522 
     17 C17        29.3242    0.6460   -4.0136 C.3       12 UNK        -0.0967 
     18 CA         28.6858    0.8604   -5.4066 C.3       5 UNK         0.0660 
     19 N          27.7023   -0.1757   -5.7264 N.am      5 UNK        -0.4015 
     20 C          27.2856   -0.4665   -6.9660 C.2       4 UNK         0.4946 
     21 O          27.7798    0.0262   -7.9801 O.2       4 UNK        -0.5353 
     22 CA         26.1207   -1.4586   -7.1132 C.3       4 UNK         0.0277 
     23 CB         26.6270   -2.8529   -7.5107 C.3       4 UNK        -0.1981 
     24 N          25.3011   -1.5524   -5.9035 N.am      4 UNK        -0.4209 
     25 C          24.4324   -0.6066   -5.5212 C.2       3 UNK         0.4942 
     26 O          24.2281    0.4255   -6.1603 O.2       3 UNK        -0.5208 
     27 CA         23.7057   -0.8226   -4.1836 C.3       3 UNK         0.0250 
     28 CB         22.5685   -1.8438   -4.3447 C.3       3 UNK        -0.1990 
     29 N          24.5850   -1.2433   -3.0890 N.am      3 UNK        -0.4232 
     30 C          25.6608   -0.5838   -2.6424 C.2       2 UNK         0.4993 
     31 O          26.0736    0.4597   -3.1479 O.2       2 UNK        -0.5286 
     32 CA         26.4321   -1.1879   -1.4542 C.3       2 UNK         0.0209 
     33 CB         25.7890   -0.7896   -0.1121 C.3       2 UNK        -0.1931 
     34 N          26.6519   -2.6386   -1.5481 N.am      2 UNK        -0.4546 
     35 C          25.7656   -3.6422   -1.5010 C.2       1 UNK         0.5154 
     36 O          24.5601   -3.4834   -1.2954 O.2       1 UNK        -0.5181 
     37 C          28.0564    2.2570   -5.5636 C.2       5 UNK         0.5014 
     38 O          28.6439    3.1136   -6.2239 O.2       5 UNK        -0.5248 
     39 N          26.8410    2.4391   -5.0242 N.am      6 UNK        -0.4434 
     40 CA         26.0218    3.6450   -5.1850 C.3       6 UNK         0.0363 
     41 CB         24.7565    3.5238   -4.3212 C.3       6 UNK        -0.1936 
     42 C          25.6571    3.9377   -6.6527 C.2       6 UNK         0.5081 
     43 O          25.6443    5.1018   -7.0530 O.2       6 UNK        -0.5248 
     44 N          25.4118    2.8789   -7.4373 N.am      7 UNK        -0.4718 
     45 CA         25.1947    2.9417   -8.8865 C.3       7 UNK         0.0273 
     46 CB         24.5026    1.6463   -9.3410 C.3       7 UNK        -0.1935 
     47 C          26.4823    3.1685   -9.7066 C.2       7 UNK         0.5018 
     48 O          26.3775    3.3990  -10.9119 O.2       7 UNK        -0.5186 
     49 N          27.6580    3.0775   -9.0637 N.am      8 UNK        -0.4240 
     50 CA         29.0071    3.1728   -9.6384 C.3       8 UNK         0.0235 
     51 CB         29.2750    4.5899  -10.1891 C.3       8 UNK        -0.2000 
     52 C          29.3253    2.0581  -10.6572 C.2       8 UNK         0.4941 
     53 O          30.0985    2.2822  -11.5907 O.2       8 UNK        -0.5273 
     54 N          28.7318    0.8757  -10.4544 N.am      9 UNK        -0.4262 
     55 CA         28.9564   -0.3315  -11.2487 C.3       9 UNK         0.0264 
     56 CB         27.6208   -1.0755  -11.4152 C.3       9 UNK        -0.1955 
     57 C          30.0052   -1.2474  -10.5968 C.2       9 UNK         0.5031 
     58 O          30.7491   -1.9151  -11.3175 O.2       9 UNK        -0.5390 
     59 N          30.0440   -1.2723   -9.2570 N.am      10 UNK        -0.4204 
     60 CA         31.0074   -2.0358   -8.4604 C.3       10 UNK         0.0237 
     61 CB         30.4020   -2.3238   -7.0723 C.3       10 UNK        -0.1985 
     62 C          32.3630   -1.3175   -8.3320 C.2       10 UNK         0.4970 
     63 O          32.5576   -0.2247   -8.8680 O.2       10 UNK        -0.4914 
     64 N          33.2625   -1.9558   -7.5780 N.am      11 UNK        -0.4285 
     65 CA         34.6001   -1.4952   -7.1739 C.3       11 UNK         0.1007 
     66 C          34.6679   -0.1847   -6.3307 C.2       11 UNK         0.5703 
     67 N          33.5586    0.4385   -5.9589 N.am      11 UNK        -0.7361 
     68 O          35.7592    0.2863   -6.0190 O.2       11 UNK        -0.4986 
     69 C69        35.4079   -2.6570   -6.5212 C.3       12 UNK        -0.0947 
     70 S70        34.4492   -3.7105   -5.3688 S.3       12 UNK        -0.2240 
     71 C71        34.7228   -2.9233   -3.7507 C.3       12 UNK         0.0194 
     72 H72        24.3349   -5.3574   -5.8555 H         1 UNK         0.0906 
     73 H73        25.9815   -5.8886   -6.2056 H         1 UNK         0.0906 
     74 H74        24.9565   -6.8418   -5.1301 H         1 UNK         0.0906 
     75 H75        25.5327   -6.5819   -3.0192 H         1 UNK         0.3140 
     76 H76        25.7890   -5.6788   -1.0399 H         1 UNK         0.1085 
     77 H77        28.0350   -6.3625   -1.6183 H         1 UNK         0.0836 
     78 H78        28.0450   -5.0472   -0.4958 H         1 UNK         0.0836 
     79 H79        30.8589   -4.9794   -1.2127 H         1 UNK         0.0731 
     80 H80        29.9209   -3.6738   -0.5298 H         1 UNK         0.0731 
     81 H81        32.7409   -4.4839   -2.7089 H         1 UNK         0.1312 
     82 H82        33.7955   -0.3798   -3.3754 H         1 UNK         0.1406 
     83 H83        30.0902   -1.3535   -1.4570 H         1 UNK         0.1631 
     84 H84        32.4694    1.3221   -2.0141 H         1 UNK         0.0717 
     85 H85        30.8394    0.9497   -1.5160 H         1 UNK         0.0717 
     86 H86        29.4716   -0.4219   -3.8505 H         1 UNK         0.0934 
     87 H87        28.6754    0.9922   -3.2073 H         1 UNK         0.0934 
     88 H88        29.4803    0.7861   -6.1526 H         1 UNK         0.0739 
     89 H89        27.2163   -0.5964   -4.9474 H         1 UNK         0.3093 
     90 H90        25.4884   -1.0974   -7.9255 H         1 UNK         0.0818 
     91 H91        27.2397   -2.8085   -8.4119 H         1 UNK         0.0819 
     92 H92        27.2316   -3.3032   -6.7239 H         1 UNK         0.0819 
     93 H93        25.7969   -3.5282   -7.7177 H         1 UNK         0.0819 
     94 H94        25.4546   -2.3673   -5.3073 H         1 UNK         0.3041 
     95 H95        23.2669    0.1346   -3.8946 H         1 UNK         0.0784 
     96 H96        21.8914   -1.5525   -5.1490 H         1 UNK         0.0793 
     97 H97        22.9499   -2.8383   -4.5808 H         1 UNK         0.0793 
     98 H98        21.9743   -1.9215   -3.4340 H         1 UNK         0.0793 
     99 H99        24.3461   -2.1053   -2.6065 H         1 UNK         0.3024 
    100 H100       27.4266   -0.7396   -1.4796 H         1 UNK         0.1171 
    101 H101       26.3717   -1.1595    0.7315 H         1 UNK         0.0786 
    102 H102       25.7338    0.2957   -0.0167 H         1 UNK         0.0786 
    103 H103       24.7733   -1.1730   -0.0123 H         1 UNK         0.0786 
    104 H104       27.5894   -2.9145   -1.8187 H         1 UNK         0.2977 
    105 H105       26.4477    1.6946   -4.4497 H         1 UNK         0.3127 
    106 H106       26.6075    4.4900   -4.8170 H         1 UNK         0.0770 
    107 H107       24.1361    2.6818   -4.6295 H         1 UNK         0.0814 
    108 H108       24.1456    4.4244   -4.3953 H         1 UNK         0.0814 
    109 H109       25.0064    3.3859   -3.2691 H         1 UNK         0.0814 
    110 H110       25.3447    1.9636   -7.0036 H         1 UNK         0.2983 
    111 H111       24.5253    3.7788   -9.0963 H         1 UNK         0.0947 
    112 H112       24.2191    1.7035  -10.3928 H         1 UNK         0.0806 
    113 H113       23.5933    1.4558   -8.7705 H         1 UNK         0.0806 
    114 H114       25.1587    0.7836   -9.2305 H         1 UNK         0.0806 
    115 H115       27.6367    2.9053   -8.0649 H         1 UNK         0.3000 
    116 H116       29.6946    3.0127   -8.8065 H         1 UNK         0.0850 
    117 H117       30.3211    4.7076  -10.4741 H         1 UNK         0.0810 
    118 H118       29.0569    5.3526   -9.4416 H         1 UNK         0.0810 
    119 H119       28.6725    4.8023  -11.0727 H         1 UNK         0.0810 
    120 H120       28.1614    0.7625   -9.6186 H         1 UNK         0.3040 
    121 H121       29.3195   -0.0600  -12.2423 H         1 UNK         0.0766 
    122 H122       26.8879   -0.4571  -11.9339 H         1 UNK         0.0812 
    123 H123       27.1932   -1.3626  -10.4541 H         1 UNK         0.0812 
    124 H124       27.7510   -1.9859  -12.0017 H         1 UNK         0.0812 
    125 H125       29.3837   -0.6919   -8.7488 H         1 UNK         0.3205 
    126 H126       31.1877   -2.9916   -8.9573 H         1 UNK         0.0754 
    127 H127       31.0325   -2.9907   -6.4829 H         1 UNK         0.0769 
    128 H128       29.4368   -2.8163   -7.1607 H         1 UNK         0.0769 
    129 H129       30.2670   -1.4132   -6.4902 H         1 UNK         0.0769 
    130 H130       32.9949   -2.8351   -7.1599 H         1 UNK         0.2981 
    131 H131       35.1135   -1.2364   -8.1015 H         1 UNK         0.0541 
    132 H132       32.6575    0.0786   -6.2231 H         1 UNK         0.3459 
    133 H133       33.6238    1.2909   -5.4270 H         1 UNK         0.3459 
    134 H134       36.3192   -2.3056   -6.0341 H         1 UNK         0.0612 
    135 H135       35.7561   -3.3190   -7.3153 H         1 UNK         0.0612 
    136 H136       35.2172   -3.6380   -3.0916 H         1 UNK         0.0624 
    137 H137       35.4057   -2.0785   -3.8507 H         1 UNK         0.0624 
@<TRIPOS>BOND
     1    1    2 1    
     2    1   72 1    
     3    1   73 1    
     4    1   74 1    
     5    2    3 2    
     6    2    4 am   BACKBONE|DICT|INTERRES
     7    4    5 1    
     8    4   75 1    
     9    5    6 1    
    10    5   35 1    
    11    5   76 1    
    12    6    7 1    
    13    6   77 1    
    14    6   78 1    
    15    7    8 1    
    16    8    9 1    
    17    8   79 1    
    18    8   80 1    
    19    9   10 ar   
    20    9   14 ar   
    21   10   11 ar   
    22   10   81 1    
    23   11   12 ar   
    24   11   71 1    
    25   12   13 ar   
    26   12   82 1    
    27   13   14 ar   
    28   13   15 1    
    29   14   83 1    
    30   15   16 1    
    31   15   84 1    
    32   15   85 1    
    33   16   17 1    
    34   17   18 1    
    35   17   86 1    
    36   17   87 1    
    37   18   19 1    
    38   18   37 1    
    39   18   88 1    
    40   19   20 am   BACKBONE|DICT|INTERRES
    41   19   89 1    
    42   20   21 2    
    43   20   22 1    
    44   22   23 1    
    45   22   24 1    
    46   22   90 1    
    47   23   91 1    
    48   23   92 1    
    49   23   93 1    
    50   24   25 am   BACKBONE|DICT|INTERRES
    51   24   94 1    
    52   25   26 2    
    53   25   27 1    
    54   27   28 1    
    55   27   29 1    
    56   27   95 1    
    57   28   96 1    
    58   28   97 1    
    59   28   98 1    
    60   29   30 am   BACKBONE|DICT|INTERRES
    61   29   99 1    
    62   30   31 2    
    63   30   32 1    
    64   32   33 1    
    65   32   34 1    
    66   32  100 1    
    67   33  101 1    
    68   33  102 1    
    69   33  103 1    
    70   34   35 am   BACKBONE|DICT|INTERRES
    71   34  104 1    
    72   35   36 2    
    73   37   38 2    
    74   37   39 am   BACKBONE|DICT|INTERRES
    75   39   40 1    
    76   39  105 1    
    77   40   41 1    
    78   40   42 1    
    79   40  106 1    
    80   41  107 1    
    81   41  108 1    
    82   41  109 1    
    83   42   43 2    
    84   42   44 am   BACKBONE|DICT|INTERRES
    85   44   45 1    
    86   44  110 1    
    87   45   46 1    
    88   45   47 1    
    89   45  111 1    
    90   46  112 1    
    91   46  113 1    
    92   46  114 1    
    93   47   48 2    
    94   47   49 am   BACKBONE|DICT|INTERRES
    95   49   50 1    
    96   49  115 1    
    97   50   51 1    
    98   50   52 1    
    99   50  116 1    
   100   51  117 1    
   101   51  118 1    
   102   51  119 1    
   103   52   53 2    
   104   52   54 am   BACKBONE|DICT|INTERRES
   105   54   55 1    
   106   54  120 1    
   107   55   56 1    
   108   55   57 1    
   109   55  121 1    
   110   56  122 1    
   111   56  123 1    
   112   56  124 1    
   113   57   58 2    
   114   57   59 am   BACKBONE|DICT|INTERRES
   115   59   60 1    
   116   59  125 1    
   117   60   61 1    
   118   60   62 1    
   119   60  126 1    
   120   61  127 1    
   121   61  128 1    
   122   61  129 1    
   123   62   63 2    
   124   62   64 am   BACKBONE|DICT|INTERRES
   125   64   65 1    
   126   64  130 1    
   127   65   66 1    
   128   65   69 1    
   129   65  131 1    
   130   66   67 am   BACKBONE|DICT|INTERRES
   131   66   68 2    
   132   67  132 1    
   133   67  133 1    
   134   69   70 1    
   135   69  134 1    
   136   69  135 1    
   137   70   71 1    
   138   71  136 1    
   139   71  137 1    
@<TRIPOS>SUBSTRUCTURE
     1 UNK         1 GROUP             0       ****    0 ROOT    
