@<TRIPOS>MOLECULE
3R137
137   139    1
SMALL
USER_CHARGES


@<TRIPOS>ATOM
      1 CA         28.9552    1.1174    2.0580 C.3       0 UNK        -0.2020 
      2 C          28.6473   -0.3730    2.1724 C.2       0 UNK         0.4855 
      3 O          28.4276   -0.8614    3.2787 O.2       0 UNK        -0.5197 
      4 N          28.6188   -1.1381    1.0720 N.am      1 UNK        -0.4892 
      5 CA         28.8166   -0.7074   -0.3201 C.3       1 UNK         0.0835 
      6 C6         29.3036   -1.8828   -1.2038 C.3       12 UNK        -0.0855 
      7 S7         28.1391   -3.2911   -1.2923 S.3       12 UNK        -0.2931 
      8 C8         29.2473   -4.6587   -1.7564 C.3       12 UNK         0.0378 
      9 C9         29.8623   -4.4514   -3.1335 C.ar      12 UNK        -0.0802 
     10 C10        31.1372   -3.8928   -3.2532 C.ar      12 UNK        -0.0944 
     11 C11        31.7240   -3.6997   -4.5061 C.ar      12 UNK        -0.0787 
     12 C12        31.0119   -4.0845   -5.6514 C.ar      12 UNK        -0.0862 
     13 C13        29.7300   -4.6423   -5.5531 C.ar      12 UNK        -0.0733 
     14 C14        29.1658   -4.8299   -4.2848 C.ar      12 UNK        -0.0832 
     15 C15        29.0029   -5.0626   -6.8316 C.3       12 UNK         0.0240 
     16 S16        27.1819   -4.8762   -6.7756 S.3       12 UNK        -0.2522 
     17 C17        26.8203   -4.4185   -8.5130 C.3       12 UNK        -0.0967 
     18 CA         26.4902   -2.9173   -8.7326 C.3       5 UNK         0.0660 
     19 N          25.2494   -2.5136   -8.0668 N.am      5 UNK        -0.4015 
     20 C          24.6367   -1.3335   -8.2472 C.2       4 UNK         0.4946 
     21 O          25.0192   -0.4729   -9.0398 O.2       4 UNK        -0.5353 
     22 CA         23.4189   -1.0422   -7.3559 C.3       4 UNK         0.0277 
     23 CB         22.1367   -1.6044   -7.9900 C.3       4 UNK        -0.1981 
     24 N          23.5660   -1.5587   -5.9911 N.am      4 UNK        -0.4209 
     25 C          24.5095   -1.1585   -5.1283 C.2       3 UNK         0.4942 
     26 O          25.3741   -0.3191   -5.3922 O.2       3 UNK        -0.5208 
     27 CA         24.5192   -1.8508   -3.7645 C.3       3 UNK         0.0250 
     28 CB         25.4322   -3.0884   -3.7990 C.3       3 UNK        -0.1990 
     29 N          25.0163   -0.9129   -2.7620 N.am      3 UNK        -0.4232 
     30 C          24.4328   -0.6522   -1.5878 C.2       2 UNK         0.4993 
     31 O          23.4145   -1.2198   -1.1862 O.2       2 UNK        -0.5286 
     32 CA         25.1298    0.3953   -0.7017 C.3       2 UNK         0.0209 
     33 CB         24.2926    0.7887    0.5304 C.3       2 UNK        -0.1931 
     34 N          26.4220   -0.1169   -0.2482 N.am      2 UNK        -0.4546 
     35 C          27.5722   -0.0205   -0.9280 C.2       1 UNK         0.5154 
     36 O          27.6719    0.5775   -1.9997 O.2       1 UNK        -0.5181 
     37 C          27.6665   -1.9953   -8.3527 C.2       5 UNK         0.5014 
     38 O          28.4160   -1.5710   -9.2319 O.2       5 UNK        -0.5248 
     39 N          27.7798   -1.6809   -7.0537 N.am      6 UNK        -0.4434 
     40 CA         28.8112   -0.8159   -6.4929 C.3       6 UNK         0.0363 
     41 CB         28.8121   -0.9140   -4.9604 C.3       6 UNK        -0.1936 
     42 C          28.6521    0.6361   -6.9508 C.2       6 UNK         0.5081 
     43 O          29.6496    1.2648   -7.3023 O.2       6 UNK        -0.5248 
     44 N          27.4040    1.1223   -6.9804 N.am      7 UNK        -0.4718 
     45 CA         27.0372    2.4384   -7.5028 C.3       7 UNK         0.0273 
     46 CB         25.5536    2.7124   -7.2105 C.3       7 UNK        -0.1935 
     47 C          27.3394    2.5850   -9.0038 C.2       7 UNK         0.5018 
     48 O          27.8886    3.6106   -9.4068 O.2       7 UNK        -0.5186 
     49 N          27.0032    1.5552   -9.7952 N.am      8 UNK        -0.4240 
     50 CA         27.2655    1.4975  -11.2352 C.3       8 UNK         0.0235 
     51 CB         26.5038    0.3150  -11.8556 C.3       8 UNK        -0.2000 
     52 C          28.7632    1.4147  -11.5725 C.2       8 UNK         0.4941 
     53 O          29.2206    2.1333  -12.4621 O.2       8 UNK        -0.5273 
     54 N          29.4989    0.5465  -10.8644 N.am      9 UNK        -0.4262 
     55 CA         30.9331    0.3237  -11.0706 C.3       9 UNK         0.0264 
     56 CB         31.3131   -1.0496  -10.4920 C.3       9 UNK        -0.1955 
     57 C          31.8341    1.4175  -10.4691 C.2       9 UNK         0.5031 
     58 O          33.0105    1.4712  -10.8308 O.2       9 UNK        -0.5390 
     59 N          31.2926    2.2311   -9.5483 N.am      10 UNK        -0.4204 
     60 CA         31.9992    3.1781   -8.6733 C.3       10 UNK         0.0237 
     61 CB         32.6550    4.3203   -9.4787 C.3       10 UNK        -0.1985 
     62 C          32.9773    2.4396   -7.7368 C.2       10 UNK         0.4970 
     63 O          34.1426    2.8215   -7.6142 O.2       10 UNK        -0.4914 
     64 N          32.4708    1.3638   -7.1237 N.am      11 UNK        -0.4285 
     65 CA         33.2131    0.4261   -6.2695 C.3       11 UNK         0.1007 
     66 C          33.4828    0.9430   -4.8259 C.2       11 UNK         0.5703 
     67 N          32.8532    2.0243   -4.3805 N.am      11 UNK        -0.7361 
     68 O          34.2880    0.3639   -4.1015 O.2       11 UNK        -0.4986 
     69 C69        32.5139   -0.9600   -6.2775 C.3       12 UNK        -0.0947 
     70 S70        33.6509   -2.3756   -6.1476 S.3       12 UNK        -0.2240 
     71 C71        33.1374   -3.1084   -4.5556 C.3       12 UNK         0.0194 
     72 H72        29.9512    1.2786    1.6466 H         1 UNK         0.0906 
     73 H73        28.2252    1.6257    1.4294 H         1 UNK         0.0906 
     74 H74        28.9258    1.5882    3.0406 H         1 UNK         0.0906 
     75 H75        28.4175   -2.1236    1.1760 H         1 UNK         0.3140 
     76 H76        29.6093    0.0427   -0.3382 H         1 UNK         0.1085 
     77 H77        29.5127   -1.5384   -2.2176 H         1 UNK         0.0836 
     78 H78        30.2572   -2.2440   -0.8158 H         1 UNK         0.0836 
     79 H79        28.6799   -5.5905   -1.7446 H         1 UNK         0.0731 
     80 H80        30.0257   -4.7691   -0.9998 H         1 UNK         0.0731 
     81 H81        31.6803   -3.6103   -2.3617 H         1 UNK         0.1312 
     82 H82        31.4557   -3.9599   -6.6287 H         1 UNK         0.1406 
     83 H83        28.1829   -5.2696   -4.1870 H         1 UNK         0.1631 
     84 H84        29.2427   -6.1040   -7.0491 H         1 UNK         0.0717 
     85 H85        29.3928   -4.4761   -7.6647 H         1 UNK         0.0717 
     86 H86        27.6497   -4.7176   -9.1566 H         1 UNK         0.0934 
     87 H87        25.9767   -5.0253   -8.8459 H         1 UNK         0.0934 
     88 H88        26.3238   -2.7799   -9.8035 H         1 UNK         0.0739 
     89 H89        24.8691   -3.1617   -7.3932 H         1 UNK         0.3093 
     90 H90        23.3172    0.0430   -7.2880 H         1 UNK         0.0818 
     91 H91        21.2534   -1.3220   -7.4168 H         1 UNK         0.0819 
     92 H92        22.0007   -1.2169   -9.0010 H         1 UNK         0.0819 
     93 H93        22.1597   -2.6927   -8.0589 H         1 UNK         0.0819 
     94 H94        22.8970   -2.2557   -5.6950 H         1 UNK         0.3041 
     95 H95        23.4999   -2.1622   -3.5262 H         1 UNK         0.0784 
     96 H96        25.0976   -3.8077   -4.5473 H         1 UNK         0.0793 
     97 H97        26.4649   -2.8262   -4.0334 H         1 UNK         0.0793 
     98 H98        25.4327   -3.6017   -2.8373 H         1 UNK         0.0793 
     99 H99        25.8333   -0.3774   -3.0342 H         1 UNK         0.3024 
    100 H100       25.2777    1.2939   -1.3058 H         1 UNK         0.1171 
    101 H101       24.7891    1.5638    1.1146 H         1 UNK         0.0786 
    102 H102       23.3202    1.1825    0.2316 H         1 UNK         0.0786 
    103 H103       24.1125   -0.0624    1.1885 H         1 UNK         0.0786 
    104 H104       26.4207   -0.6692    0.5977 H         1 UNK         0.2977 
    105 H105       27.1021   -2.0570   -6.4079 H         1 UNK         0.3127 
    106 H106       29.7674   -1.1824   -6.8629 H         1 UNK         0.0770 
    107 H107       27.8651   -0.5899   -4.5297 H         1 UNK         0.0814 
    108 H108       28.9977   -1.9343   -4.6282 H         1 UNK         0.0814 
    109 H109       29.5919   -0.2856   -4.5287 H         1 UNK         0.0814 
    110 H110       26.6517    0.5441   -6.6150 H         1 UNK         0.2983 
    111 H111       27.6343    3.1825   -6.9711 H         1 UNK         0.0947 
    112 H112       25.3452    2.6642   -6.1414 H         1 UNK         0.0806 
    113 H113       24.9038    1.9925   -7.7089 H         1 UNK         0.0806 
    114 H114       25.2651    3.7065   -7.5543 H         1 UNK         0.0806 
    115 H115       26.5021    0.7684   -9.3901 H         1 UNK         0.3000 
    116 H116       26.8788    2.4173  -11.6794 H         1 UNK         0.0850 
    117 H117       26.6794    0.2560  -12.9306 H         1 UNK         0.0810 
    118 H118       25.4285    0.4165  -11.7078 H         1 UNK         0.0810 
    119 H119       26.8108   -0.6368  -11.4202 H         1 UNK         0.0810 
    120 H120       29.0382   -0.0571  -10.1853 H         1 UNK         0.3040 
    121 H121       31.1272    0.3009  -12.1451 H         1 UNK         0.0766 
    122 H122       31.1204   -1.0992   -9.4204 H         1 UNK         0.0812 
    123 H123       32.3718   -1.2639  -10.6447 H         1 UNK         0.0812 
    124 H124       30.7481   -1.8506  -10.9689 H         1 UNK         0.0812 
    125 H125       30.3278    2.0571   -9.2928 H         1 UNK         0.3205 
    126 H126       31.2378    3.6246   -8.0318 H         1 UNK         0.0754 
    127 H127       33.0638    5.0800   -8.8115 H         1 UNK         0.0769 
    128 H128       31.9303    4.8135  -10.1266 H         1 UNK         0.0769 
    129 H129       33.4751    3.9641  -10.1026 H         1 UNK         0.0769 
    130 H130       31.4752    1.1833   -7.2342 H         1 UNK         0.2981 
    131 H131       34.1952    0.3066   -6.7311 H         1 UNK         0.0541 
    132 H132       32.1949    2.5104   -4.9673 H         1 UNK         0.3459 
    133 H133       33.0422    2.3559   -3.4481 H         1 UNK         0.3459 
    134 H134       31.9983   -1.1080   -7.2260 H         1 UNK         0.0612 
    135 H135       31.7439   -1.0168   -5.5072 H         1 UNK         0.0612 
    136 H136       33.2426   -2.3436   -3.7842 H         1 UNK         0.0624 
    137 H137       33.8455   -3.8986   -4.3036 H         1 UNK         0.0624 
@<TRIPOS>BOND
     1    1    2 1    
     2    1   72 1    
     3    1   73 1    
     4    1   74 1    
     5    2    3 2    
     6    2    4 am   BACKBONE|DICT|INTERRES
     7    4    5 1    
     8    4   75 1    
     9    5    6 1    
    10    5   35 1    
    11    5   76 1    
    12    6    7 1    
    13    6   77 1    
    14    6   78 1    
    15    7    8 1    
    16    8    9 1    
    17    8   79 1    
    18    8   80 1    
    19    9   10 ar   
    20    9   14 ar   
    21   10   11 ar   
    22   10   81 1    
    23   11   12 ar   
    24   11   71 1    
    25   12   13 ar   
    26   12   82 1    
    27   13   14 ar   
    28   13   15 1    
    29   14   83 1    
    30   15   16 1    
    31   15   84 1    
    32   15   85 1    
    33   16   17 1    
    34   17   18 1    
    35   17   86 1    
    36   17   87 1    
    37   18   19 1    
    38   18   37 1    
    39   18   88 1    
    40   19   20 am   BACKBONE|DICT|INTERRES
    41   19   89 1    
    42   20   21 2    
    43   20   22 1    
    44   22   23 1    
    45   22   24 1    
    46   22   90 1    
    47   23   91 1    
    48   23   92 1    
    49   23   93 1    
    50   24   25 am   BACKBONE|DICT|INTERRES
    51   24   94 1    
    52   25   26 2    
    53   25   27 1    
    54   27   28 1    
    55   27   29 1    
    56   27   95 1    
    57   28   96 1    
    58   28   97 1    
    59   28   98 1    
    60   29   30 am   BACKBONE|DICT|INTERRES
    61   29   99 1    
    62   30   31 2    
    63   30   32 1    
    64   32   33 1    
    65   32   34 1    
    66   32  100 1    
    67   33  101 1    
    68   33  102 1    
    69   33  103 1    
    70   34   35 am   BACKBONE|DICT|INTERRES
    71   34  104 1    
    72   35   36 2    
    73   37   38 2    
    74   37   39 am   BACKBONE|DICT|INTERRES
    75   39   40 1    
    76   39  105 1    
    77   40   41 1    
    78   40   42 1    
    79   40  106 1    
    80   41  107 1    
    81   41  108 1    
    82   41  109 1    
    83   42   43 2    
    84   42   44 am   BACKBONE|DICT|INTERRES
    85   44   45 1    
    86   44  110 1    
    87   45   46 1    
    88   45   47 1    
    89   45  111 1    
    90   46  112 1    
    91   46  113 1    
    92   46  114 1    
    93   47   48 2    
    94   47   49 am   BACKBONE|DICT|INTERRES
    95   49   50 1    
    96   49  115 1    
    97   50   51 1    
    98   50   52 1    
    99   50  116 1    
   100   51  117 1    
   101   51  118 1    
   102   51  119 1    
   103   52   53 2    
   104   52   54 am   BACKBONE|DICT|INTERRES
   105   54   55 1    
   106   54  120 1    
   107   55   56 1    
   108   55   57 1    
   109   55  121 1    
   110   56  122 1    
   111   56  123 1    
   112   56  124 1    
   113   57   58 2    
   114   57   59 am   BACKBONE|DICT|INTERRES
   115   59   60 1    
   116   59  125 1    
   117   60   61 1    
   118   60   62 1    
   119   60  126 1    
   120   61  127 1    
   121   61  128 1    
   122   61  129 1    
   123   62   63 2    
   124   62   64 am   BACKBONE|DICT|INTERRES
   125   64   65 1    
   126   64  130 1    
   127   65   66 1    
   128   65   69 1    
   129   65  131 1    
   130   66   67 am   BACKBONE|DICT|INTERRES
   131   66   68 2    
   132   67  132 1    
   133   67  133 1    
   134   69   70 1    
   135   69  134 1    
   136   69  135 1    
   137   70   71 1    
   138   71  136 1    
   139   71  137 1    
@<TRIPOS>SUBSTRUCTURE
     1 UNK         1 GROUP             0       ****    0 ROOT    
