@<TRIPOS>MOLECULE
3R137
137   139    1
SMALL
USER_CHARGES


@<TRIPOS>ATOM
      1 CA         24.8636   -1.5729   -7.4215 C.3       0 UNK        -0.2020 
      2 C          25.3643   -2.8317   -6.7301 C.2       0 UNK         0.4855 
      3 O          25.1324   -3.9388   -7.2157 O.2       0 UNK        -0.5197 
      4 N          26.0351   -2.6734   -5.5847 N.am      1 UNK        -0.4892 
      5 CA         26.5725   -3.7518   -4.7556 C.3       1 UNK         0.0835 
      6 C6         27.8308   -3.2697   -3.9954 C.3       12 UNK        -0.0855 
      7 S7         28.8075   -4.6443   -3.2906 S.3       12 UNK        -0.2931 
      8 C8         30.5109   -4.1949   -3.7691 C.3       12 UNK         0.0378 
      9 C9         30.8589   -2.7524   -3.4197 C.ar      12 UNK        -0.0802 
     10 C10        31.3122   -1.8855   -4.4172 C.ar      12 UNK        -0.0944 
     11 C11        31.5843   -0.5464   -4.1295 C.ar      12 UNK        -0.0787 
     12 C12        31.4142   -0.0766   -2.8241 C.ar      12 UNK        -0.0862 
     13 C13        30.9570   -0.9329   -1.8161 C.ar      12 UNK        -0.0733 
     14 C14        30.6963   -2.2725   -2.1166 C.ar      12 UNK        -0.0832 
     15 C15        30.7153   -0.4127   -0.4067 C.3       12 UNK         0.0240 
     16 S16        28.9531   -0.0343   -0.1259 S.3       12 UNK        -0.2522 
     17 C17        28.7109    1.3894   -1.2395 C.3       12 UNK        -0.0967 
     18 CA         27.8830    1.0221   -2.5016 C.3       5 UNK         0.0660 
     19 N          26.4853    0.7331   -2.1480 N.am      5 UNK        -0.4015 
     20 C          25.5790    0.1059   -2.9085 C.2       4 UNK         0.4946 
     21 O          25.8264   -0.3767   -4.0199 O.2       4 UNK        -0.5353 
     22 CA         24.1422    0.0820   -2.3716 C.3       4 UNK         0.0277 
     23 CB         23.5382    1.5031   -2.4305 C.3       4 UNK        -0.1981 
     24 N          23.3583   -0.8437   -3.1872 N.am      4 UNK        -0.4209 
     25 C          22.0902   -1.2204   -2.9795 C.2       3 UNK         0.4942 
     26 O          21.4116   -0.8655   -2.0150 O.2       3 UNK        -0.5208 
     27 CA         21.4736   -2.1535   -4.0342 C.3       3 UNK         0.0250 
     28 CB         21.2866   -1.4257   -5.3771 C.3       3 UNK        -0.1990 
     29 N          22.2814   -3.3564   -4.2324 N.am      3 UNK        -0.4232 
     30 C          22.3224   -4.3934   -3.3832 C.2       2 UNK         0.4993 
     31 O          21.6234   -4.4857   -2.3735 O.2       2 UNK        -0.5286 
     32 CA         23.3178   -5.5195   -3.7151 C.3       2 UNK         0.0209 
     33 CB         22.6452   -6.6021   -4.5748 C.3       2 UNK        -0.1931 
     34 N          24.5210   -5.0334   -4.3978 N.am      2 UNK        -0.4546 
     35 C          25.4511   -4.2558   -3.8266 C.2       1 UNK         0.5154 
     36 O          25.4018   -3.8922   -2.6499 O.2       1 UNK        -0.5181 
     37 C          27.9874    2.1150   -3.5957 C.2       5 UNK         0.5014 
     38 O          28.6278    3.1474   -3.3840 O.2       5 UNK        -0.5248 
     39 N          27.3381    1.8852   -4.7419 N.am      6 UNK        -0.4434 
     40 CA         27.3846    2.7401   -5.9247 C.3       6 UNK         0.0363 
     41 CB         26.2126    2.3742   -6.8501 C.3       6 UNK        -0.1936 
     42 C          28.7169    2.5608   -6.6637 C.2       6 UNK         0.5081 
     43 O          29.2102    1.4356   -6.7612 O.2       6 UNK        -0.5248 
     44 N          29.2411    3.6534   -7.2367 N.am      7 UNK        -0.4718 
     45 CA         30.4926    3.6722   -8.0086 C.3       7 UNK         0.0273 
     46 CB         30.8266    5.1157   -8.4146 C.3       7 UNK        -0.1935 
     47 C          30.4825    2.7539   -9.2449 C.2       7 UNK         0.5018 
     48 O          31.5383    2.2631   -9.6476 O.2       7 UNK        -0.5186 
     49 N          29.2821    2.5075   -9.7887 N.am      8 UNK        -0.4240 
     50 CA         29.0075    1.5760  -10.8824 C.3       8 UNK         0.0235 
     51 CB         27.5239    1.6825  -11.2707 C.3       8 UNK        -0.2000 
     52 C          29.3731    0.1131  -10.5721 C.2       8 UNK         0.4941 
     53 O          29.6424   -0.6388  -11.5098 O.2       8 UNK        -0.5273 
     54 N          29.4254   -0.2743   -9.2872 N.am      9 UNK        -0.4262 
     55 CA         29.8272   -1.6091   -8.8291 C.3       9 UNK         0.0264 
     56 CB         29.2126   -1.8732   -7.4423 C.3       9 UNK        -0.1955 
     57 C          31.3594   -1.8046   -8.8604 C.2       9 UNK         0.5031 
     58 O          31.9479   -2.2402   -7.8720 O.2       9 UNK        -0.5390 
     59 N          31.9747   -1.4716  -10.0028 N.am      10 UNK        -0.4204 
     60 CA         33.3939   -1.6007  -10.3587 C.3       10 UNK         0.0237 
     61 CB         33.8318   -3.0810  -10.3309 C.3       10 UNK        -0.1985 
     62 C          34.3769   -0.7001   -9.5802 C.2       10 UNK         0.4970 
     63 O          35.5800   -0.8059   -9.8270 O.2       10 UNK        -0.4914 
     64 N          33.8911    0.1777   -8.6918 N.am      11 UNK        -0.4285 
     65 CA         34.7288    1.1604   -7.9820 C.3       11 UNK         0.1007 
     66 C          35.1676    2.3506   -8.8799 C.2       11 UNK         0.5703 
     67 N          34.3517    2.7905   -9.8301 N.am      11 UNK        -0.7361 
     68 O          36.2669    2.8744   -8.7159 O.2       11 UNK        -0.4986 
     69 C69        34.0730    1.6765   -6.6773 C.3       12 UNK        -0.0947 
     70 S70        33.8401    0.3696   -5.4286 S.3       12 UNK        -0.2240 
     71 C71        32.0345    0.3951   -5.2356 C.3       12 UNK         0.0194 
     72 H72        25.4762   -1.3586   -8.2968 H         1 UNK         0.0906 
     73 H73        23.8337   -1.7062   -7.7514 H         1 UNK         0.0906 
     74 H74        24.8973   -0.7075   -6.7598 H         1 UNK         0.0906 
     75 H75        26.1114   -1.7453   -5.1690 H         1 UNK         0.3140 
     76 H76        26.8728   -4.5789   -5.4037 H         1 UNK         0.1085 
     77 H77        27.5799   -2.5619   -3.2025 H         1 UNK         0.0836 
     78 H78        28.4649   -2.7152   -4.6877 H         1 UNK         0.0836 
     79 H79        30.6280   -4.3725   -4.8396 H         1 UNK         0.0731 
     80 H80        31.2109   -4.8633   -3.2663 H         1 UNK         0.0731 
     81 H81        31.4414   -2.2491   -5.4258 H         1 UNK         0.1312 
     82 H82        31.6225    0.9604   -2.6000 H         1 UNK         0.1406 
     83 H83        30.3309   -2.9350   -1.3434 H         1 UNK         0.1631 
     84 H84        31.3186    0.4754   -0.2120 H         1 UNK         0.0717 
     85 H85        31.0351   -1.1615    0.3195 H         1 UNK         0.0717 
     86 H86        28.2222    2.1896   -0.6806 H         1 UNK         0.0934 
     87 H87        29.6910    1.7855   -1.5077 H         1 UNK         0.0934 
     88 H88        28.3139    0.1175   -2.9375 H         1 UNK         0.0739 
     89 H89        26.1839    1.1043   -1.2591 H         1 UNK         0.3093 
     90 H90        24.1570   -0.2812   -1.3421 H         1 UNK         0.0818 
     91 H91        24.1331    2.2157   -1.8584 H         1 UNK         0.0819 
     92 H92        23.4855    1.8727   -3.4555 H         1 UNK         0.0819 
     93 H93        22.5317    1.5347   -2.0142 H         1 UNK         0.0819 
     94 H94        23.8686   -1.2028   -3.9830 H         1 UNK         0.3041 
     95 H95        20.4861   -2.4551   -3.6775 H         1 UNK         0.0784 
     96 H96        20.6719   -0.5332   -5.2519 H         1 UNK         0.0793 
     97 H97        22.2355   -1.1076   -5.8094 H         1 UNK         0.0793 
     98 H98        20.7841   -2.0627   -6.1053 H         1 UNK         0.0793 
     99 H99        22.8819   -3.3840   -5.0425 H         1 UNK         0.3024 
    100 H100       23.6242   -5.9715   -2.7687 H         1 UNK         0.1171 
    101 H101       22.3345   -6.2137   -5.5456 H         1 UNK         0.0786 
    102 H102       23.3157   -7.4440   -4.7485 H         1 UNK         0.0786 
    103 H103       21.7555   -6.9952   -4.0807 H         1 UNK         0.0786 
    104 H104       24.6095   -5.2364   -5.3863 H         1 UNK         0.2977 
    105 H105       26.8316    1.0078   -4.8210 H         1 UNK         0.3127 
    106 H106       27.2788    3.7809   -5.6110 H         1 UNK         0.0770 
    107 H107       26.1788    3.0329   -7.7187 H         1 UNK         0.0814 
    108 H108       25.2558    2.4679   -6.3359 H         1 UNK         0.0814 
    109 H109       26.2957    1.3513   -7.2200 H         1 UNK         0.0814 
    110 H110       28.7672    4.5385   -7.1222 H         1 UNK         0.2983 
    111 H111       31.2807    3.3145   -7.3468 H         1 UNK         0.0947 
    112 H112       31.7684    5.1573   -8.9643 H         1 UNK         0.0806 
    113 H113       30.9362    5.7593   -7.5416 H         1 UNK         0.0806 
    114 H114       30.0557    5.5448   -9.0558 H         1 UNK         0.0806 
    115 H115       28.4841    2.9669   -9.3761 H         1 UNK         0.3000 
    116 H116       29.6127    1.8862  -11.7368 H         1 UNK         0.0850 
    117 H117       27.2659    2.6944  -11.5839 H         1 UNK         0.0810 
    118 H118       26.8687    1.4081  -10.4427 H         1 UNK         0.0810 
    119 H119       27.2900    1.0190  -12.1046 H         1 UNK         0.0810 
    120 H120       29.2550    0.4113   -8.5574 H         1 UNK         0.3040 
    121 H121       29.4058   -2.3497   -9.5122 H         1 UNK         0.0766 
    122 H122       29.4365   -2.8835   -7.0978 H         1 UNK         0.0812 
    123 H123       28.1286   -1.7727   -7.4670 H         1 UNK         0.0812 
    124 H124       29.5908   -1.1796   -6.6924 H         1 UNK         0.0812 
    125 H125       31.3699   -1.1194  -10.7410 H         1 UNK         0.3205 
    126 H126       33.4587   -1.2652  -11.3947 H         1 UNK         0.0754 
    127 H127       34.8338   -3.2036  -10.7440 H         1 UNK         0.0769 
    128 H128       33.1624   -3.7044  -10.9237 H         1 UNK         0.0769 
    129 H129       33.8503   -3.4787   -9.3158 H         1 UNK         0.0769 
    130 H130       32.8944    0.2357   -8.5489 H         1 UNK         0.2981 
    131 H131       35.6494    0.6524   -7.6869 H         1 UNK         0.0541 
    132 H132       33.4062    2.4257   -9.9065 H         1 UNK         0.3459 
    133 H133       34.6439    3.5555  -10.4160 H         1 UNK         0.3459 
    134 H134       33.1193    2.1519   -6.8995 H         1 UNK         0.0612 
    135 H135       34.6943    2.4464   -6.2155 H         1 UNK         0.0612 
    136 H136       31.5715    0.1143   -6.1824 H         1 UNK         0.0624 
    137 H137       31.7016    1.4116   -5.0188 H         1 UNK         0.0624 
@<TRIPOS>BOND
     1    1    2 1    
     2    1   72 1    
     3    1   73 1    
     4    1   74 1    
     5    2    3 2    
     6    2    4 am   BACKBONE|DICT|INTERRES
     7    4    5 1    
     8    4   75 1    
     9    5    6 1    
    10    5   35 1    
    11    5   76 1    
    12    6    7 1    
    13    6   77 1    
    14    6   78 1    
    15    7    8 1    
    16    8    9 1    
    17    8   79 1    
    18    8   80 1    
    19    9   10 ar   
    20    9   14 ar   
    21   10   11 ar   
    22   10   81 1    
    23   11   12 ar   
    24   11   71 1    
    25   12   13 ar   
    26   12   82 1    
    27   13   14 ar   
    28   13   15 1    
    29   14   83 1    
    30   15   16 1    
    31   15   84 1    
    32   15   85 1    
    33   16   17 1    
    34   17   18 1    
    35   17   86 1    
    36   17   87 1    
    37   18   19 1    
    38   18   37 1    
    39   18   88 1    
    40   19   20 am   BACKBONE|DICT|INTERRES
    41   19   89 1    
    42   20   21 2    
    43   20   22 1    
    44   22   23 1    
    45   22   24 1    
    46   22   90 1    
    47   23   91 1    
    48   23   92 1    
    49   23   93 1    
    50   24   25 am   BACKBONE|DICT|INTERRES
    51   24   94 1    
    52   25   26 2    
    53   25   27 1    
    54   27   28 1    
    55   27   29 1    
    56   27   95 1    
    57   28   96 1    
    58   28   97 1    
    59   28   98 1    
    60   29   30 am   BACKBONE|DICT|INTERRES
    61   29   99 1    
    62   30   31 2    
    63   30   32 1    
    64   32   33 1    
    65   32   34 1    
    66   32  100 1    
    67   33  101 1    
    68   33  102 1    
    69   33  103 1    
    70   34   35 am   BACKBONE|DICT|INTERRES
    71   34  104 1    
    72   35   36 2    
    73   37   38 2    
    74   37   39 am   BACKBONE|DICT|INTERRES
    75   39   40 1    
    76   39  105 1    
    77   40   41 1    
    78   40   42 1    
    79   40  106 1    
    80   41  107 1    
    81   41  108 1    
    82   41  109 1    
    83   42   43 2    
    84   42   44 am   BACKBONE|DICT|INTERRES
    85   44   45 1    
    86   44  110 1    
    87   45   46 1    
    88   45   47 1    
    89   45  111 1    
    90   46  112 1    
    91   46  113 1    
    92   46  114 1    
    93   47   48 2    
    94   47   49 am   BACKBONE|DICT|INTERRES
    95   49   50 1    
    96   49  115 1    
    97   50   51 1    
    98   50   52 1    
    99   50  116 1    
   100   51  117 1    
   101   51  118 1    
   102   51  119 1    
   103   52   53 2    
   104   52   54 am   BACKBONE|DICT|INTERRES
   105   54   55 1    
   106   54  120 1    
   107   55   56 1    
   108   55   57 1    
   109   55  121 1    
   110   56  122 1    
   111   56  123 1    
   112   56  124 1    
   113   57   58 2    
   114   57   59 am   BACKBONE|DICT|INTERRES
   115   59   60 1    
   116   59  125 1    
   117   60   61 1    
   118   60   62 1    
   119   60  126 1    
   120   61  127 1    
   121   61  128 1    
   122   61  129 1    
   123   62   63 2    
   124   62   64 am   BACKBONE|DICT|INTERRES
   125   64   65 1    
   126   64  130 1    
   127   65   66 1    
   128   65   69 1    
   129   65  131 1    
   130   66   67 am   BACKBONE|DICT|INTERRES
   131   66   68 2    
   132   67  132 1    
   133   67  133 1    
   134   69   70 1    
   135   69  134 1    
   136   69  135 1    
   137   70   71 1    
   138   71  136 1    
   139   71  137 1    
@<TRIPOS>SUBSTRUCTURE
     1 UNK         1 GROUP             0       ****    0 ROOT    
