@<TRIPOS>MOLECULE
3R137
137   139    1
SMALL
USER_CHARGES


@<TRIPOS>ATOM
      1 CA         25.2521   -6.1446   -5.4406 C.3       0 UNK        -0.2020 
      2 C          25.6757   -5.4892   -4.1353 C.2       0 UNK         0.4855 
      3 O          24.8317   -5.2557   -3.2689 O.2       0 UNK        -0.5197 
      4 N          26.9734   -5.1819   -3.9900 N.am      1 UNK        -0.4892 
      5 CA         27.5589   -4.5074   -2.8243 C.3       1 UNK         0.0835 
      6 C6         29.0990   -4.3924   -2.9485 C.3       12 UNK        -0.0855 
      7 S7         29.8970   -4.1095   -1.3331 S.3       12 UNK        -0.2931 
      8 C8         31.5877   -3.6392   -1.8459 C.3       12 UNK         0.0378 
      9 C9         31.7759   -2.2116   -2.3720 C.ar      12 UNK        -0.0802 
     10 C10        33.0366   -1.8588   -2.8631 C.ar      12 UNK        -0.0944 
     11 C11        33.2884   -0.5679   -3.3330 C.ar      12 UNK        -0.0787 
     12 C12        32.2630    0.3798   -3.3196 C.ar      12 UNK        -0.0862 
     13 C13        30.9894    0.0534   -2.8458 C.ar      12 UNK        -0.0733 
     14 C14        30.7596   -1.2446   -2.3624 C.ar      12 UNK        -0.0832 
     15 C15        29.9082    1.1383   -2.8859 C.3       12 UNK         0.0240 
     16 S16        28.2048    0.5436   -2.6194 S.3       12 UNK        -0.2522 
     17 C17        27.2100    1.8427   -3.4143 C.3       12 UNK        -0.0967 
     18 CA         27.0061    1.5877   -4.9278 C.3       5 UNK         0.0660 
     19 N          26.4102    0.2735   -5.2218 N.am      5 UNK        -0.4015 
     20 C          26.2179   -0.2325   -6.4511 C.2       4 UNK         0.4946 
     21 O          26.5401    0.3618   -7.4805 O.2       4 UNK        -0.5353 
     22 CA         25.5280   -1.5992   -6.5780 C.3       4 UNK         0.0277 
     23 CB         26.5524   -2.7056   -6.8754 C.3       4 UNK        -0.1981 
     24 N          24.7580   -1.9511   -5.3848 N.am      4 UNK        -0.4209 
     25 C          23.4998   -1.5523   -5.1486 C.2       3 UNK         0.4942 
     26 O          22.8540   -0.8448   -5.9221 O.2       3 UNK        -0.5208 
     27 CA         22.8466   -2.0104   -3.8321 C.3       3 UNK         0.0250 
     28 CB         22.0117   -3.2804   -4.0612 C.3       3 UNK        -0.1990 
     29 N          23.8212   -2.2531   -2.7656 N.am      3 UNK        -0.4232 
     30 C          24.4490   -1.2779   -2.0911 C.2       2 UNK         0.4993 
     31 O          24.2214   -0.0795   -2.2576 O.2       2 UNK        -0.5286 
     32 CA         25.5399   -1.7006   -1.0884 C.3       2 UNK         0.0209 
     33 CB         24.9383   -1.8710    0.3157 C.3       2 UNK        -0.1931 
     34 N          26.2696   -2.9214   -1.4541 N.am      2 UNK        -0.4546 
     35 C          26.9043   -3.1282   -2.6170 C.2       1 UNK         0.5154 
     36 O          26.9351   -2.3106   -3.5375 O.2       1 UNK        -0.5181 
     37 C          26.2451    2.7679   -5.5697 C.2       5 UNK         0.5014 
     38 O          26.8666    3.7902   -5.8600 O.2       5 UNK        -0.5248 
     39 N          24.9442    2.5930   -5.8496 N.am      6 UNK        -0.4434 
     40 CA         24.1180    3.5160   -6.6362 C.3       6 UNK         0.0363 
     41 CB         22.6614    3.0260   -6.6122 C.3       6 UNK        -0.1936 
     42 C          24.5994    3.6983   -8.0918 C.2       6 UNK         0.5081 
     43 O          24.3320    4.7428   -8.6856 O.2       6 UNK        -0.5248 
     44 N          25.3164    2.7011   -8.6275 N.am      7 UNK        -0.4718 
     45 CA         25.9851    2.7218   -9.9299 C.3       7 UNK         0.0273 
     46 CB         25.5408    1.4804  -10.7255 C.3       7 UNK        -0.1935 
     47 C          27.5188    2.7715   -9.7668 C.2       7 UNK         0.5018 
     48 O          28.2363    2.4111  -10.7005 O.2       7 UNK        -0.5186 
     49 N          27.9949    3.1967   -8.5845 N.am      8 UNK        -0.4240 
     50 CA         29.3961    3.3008   -8.1554 C.3       8 UNK         0.0235 
     51 CB         30.1770    4.3017   -9.0343 C.3       8 UNK        -0.2000 
     52 C          30.1252    1.9491   -8.0097 C.2       8 UNK         0.4941 
     53 O          31.3569    1.9340   -7.9865 O.2       8 UNK        -0.5273 
     54 N          29.3743    0.8417   -7.9038 N.am      9 UNK        -0.4262 
     55 CA         29.7891   -0.5502   -7.6623 C.3       9 UNK         0.0264 
     56 CB         30.4040   -0.7046   -6.2585 C.3       9 UNK        -0.1955 
     57 C          30.6852   -1.2109   -8.7279 C.2       9 UNK         0.5031 
     58 O          30.5888   -2.4266   -8.8999 O.2       9 UNK        -0.5390 
     59 N          31.5394   -0.4286   -9.4019 N.am      10 UNK        -0.4204 
     60 CA         32.5791   -0.8436  -10.3540 C.3       10 UNK         0.0237 
     61 CB         31.9588   -1.4539  -11.6293 C.3       10 UNK        -0.1985 
     62 C          33.6406   -1.7508   -9.6974 C.2       10 UNK         0.4970 
     63 O          34.1239   -2.6975  -10.3210 O.2       10 UNK        -0.4914 
     64 N          33.9709   -1.4401   -8.4380 N.am      11 UNK        -0.4285 
     65 CA         34.9187   -2.1727   -7.5872 C.3       11 UNK         0.1007 
     66 C          36.4223   -2.0037   -7.9579 C.2       11 UNK         0.5703 
     67 N          36.7920   -1.0943   -8.8523 N.am      11 UNK        -0.7361 
     68 O          37.2679   -2.7243   -7.4327 O.2       11 UNK        -0.4986 
     69 C69        34.6422   -1.8877   -6.0866 C.3       12 UNK        -0.0947 
     70 S70        34.7314   -0.1148   -5.6561 S.3       12 UNK        -0.2240 
     71 C71        34.6714   -0.1870   -3.8404 C.3       12 UNK         0.0194 
     72 H72        24.5026   -5.5317   -5.9409 H         1 UNK         0.0906 
     73 H73        26.0916   -6.2793   -6.1223 H         1 UNK         0.0906 
     74 H74        24.8148   -7.1229   -5.2431 H         1 UNK         0.0906 
     75 H75        27.6136   -5.3809   -4.7452 H         1 UNK         0.3140 
     76 H76        27.3302   -5.1367   -1.9611 H         1 UNK         0.1085 
     77 H77        29.5121   -5.3197   -3.3489 H         1 UNK         0.0836 
     78 H78        29.3845   -3.6068   -3.6522 H         1 UNK         0.0836 
     79 H79        31.9331   -4.3492   -2.5992 H         1 UNK         0.0731 
     80 H80        32.2424   -3.7684   -0.9829 H         1 UNK         0.0731 
     81 H81        33.8315   -2.5924   -2.8717 H         1 UNK         0.1312 
     82 H82        32.4587    1.3768   -3.6910 H         1 UNK         0.1406 
     83 H83        29.7855   -1.5042   -1.9781 H         1 UNK         0.1631 
     84 H84        29.9531    1.6352   -3.8562 H         1 UNK         0.0717 
     85 H85        30.1353    1.8966   -2.1355 H         1 UNK         0.0717 
     86 H86        26.2463    1.8868   -2.9026 H         1 UNK         0.0934 
     87 H87        27.6916    2.8074   -3.2399 H         1 UNK         0.0934 
     88 H88        27.9932    1.5807   -5.3937 H         1 UNK         0.0739 
     89 H89        26.2078   -0.3141   -4.4225 H         1 UNK         0.3093 
     90 H90        24.8471   -1.5409   -7.4301 H         1 UNK         0.0818 
     91 H91        27.0363   -2.5348   -7.8374 H         1 UNK         0.0819 
     92 H92        27.3351   -2.7550   -6.1176 H         1 UNK         0.0819 
     93 H93        26.0751   -3.6830   -6.9327 H         1 UNK         0.0819 
     94 H94        25.2646   -2.4454   -4.6584 H         1 UNK         0.3041 
     95 H95        22.1707   -1.2163   -3.5069 H         1 UNK         0.0784 
     96 H96        21.2430   -3.1099   -4.8163 H         1 UNK         0.0793 
     97 H97        22.6258   -4.1132   -4.4054 H         1 UNK         0.0793 
     98 H98        21.5044   -3.5925   -3.1482 H         1 UNK         0.0793 
     99 H99        24.0852   -3.2170   -2.5949 H         1 UNK         0.3024 
    100 H100       26.2667   -0.8883   -1.0472 H         1 UNK         0.1171 
    101 H101       25.7127   -2.0587    1.0599 H         1 UNK         0.0786 
    102 H102       24.4077   -0.9692    0.6251 H         1 UNK         0.0786 
    103 H103       24.2269   -2.6970    0.3531 H         1 UNK         0.0786 
    104 H104       26.2751   -3.6601   -0.7654 H         1 UNK         0.2977 
    105 H105       24.5106    1.7222   -5.5764 H         1 UNK         0.3127 
    106 H106       24.1613    4.4947   -6.1538 H         1 UNK         0.0770 
    107 H107       22.5620    2.0339   -7.0555 H         1 UNK         0.0814 
    108 H108       22.0128    3.7005   -7.1730 H         1 UNK         0.0814 
    109 H109       22.2741    2.9790   -5.5942 H         1 UNK         0.0814 
    110 H110       25.5170    1.8797   -8.0624 H         1 UNK         0.2983 
    111 H111       25.6976    3.6120  -10.4932 H         1 UNK         0.0947 
    112 H112       25.9635    1.4835  -11.7310 H         1 UNK         0.0806 
    113 H113       24.4566    1.4463  -10.8328 H         1 UNK         0.0806 
    114 H114       25.8587    0.5571  -10.2390 H         1 UNK         0.0806 
    115 H115       27.3191    3.4657   -7.8774 H         1 UNK         0.3000 
    116 H116       29.3614    3.7178   -7.1479 H         1 UNK         0.0850 
    117 H117       31.1614    4.5086   -8.6125 H         1 UNK         0.0810 
    118 H118       29.6542    5.2549   -9.1111 H         1 UNK         0.0810 
    119 H119       30.3329    3.9207  -10.0439 H         1 UNK         0.0810 
    120 H120       28.3664    0.9553   -7.9683 H         1 UNK         0.3040 
    121 H121       28.8646   -1.1245   -7.6700 H         1 UNK         0.0766 
    122 H122       31.3065   -0.1047   -6.1382 H         1 UNK         0.0812 
    123 H123       30.6776   -1.7415   -6.0583 H         1 UNK         0.0812 
    124 H124       29.6952   -0.4089   -5.4855 H         1 UNK         0.0812 
    125 H125       31.5616    0.5484   -9.1098 H         1 UNK         0.3205 
    126 H126       33.1014    0.0679  -10.6480 H         1 UNK         0.0754 
    127 H127       32.7220   -1.6318  -12.3879 H         1 UNK         0.0769 
    128 H128       31.2171   -0.7859  -12.0673 H         1 UNK         0.0769 
    129 H129       31.4730   -2.4092  -11.4285 H         1 UNK         0.0769 
    130 H130       33.5431   -0.6333   -8.0080 H         1 UNK         0.2981 
    131 H131       34.7128   -3.2335   -7.7417 H         1 UNK         0.0541 
    132 H132       37.7675   -1.0002   -9.0869 H         1 UNK         0.3459 
    133 H133       36.1073   -0.4971   -9.2861 H         1 UNK         0.3459 
    134 H134       35.3319   -2.4478   -5.4525 H         1 UNK         0.0612 
    135 H135       33.6439   -2.2446   -5.8281 H         1 UNK         0.0612 
    136 H136       35.4274   -0.8849   -3.4774 H         1 UNK         0.0624 
    137 H137       34.9445    0.7914   -3.4425 H         1 UNK         0.0624 
@<TRIPOS>BOND
     1    1    2 1    
     2    1   72 1    
     3    1   73 1    
     4    1   74 1    
     5    2    3 2    
     6    2    4 am   BACKBONE|DICT|INTERRES
     7    4    5 1    
     8    4   75 1    
     9    5    6 1    
    10    5   35 1    
    11    5   76 1    
    12    6    7 1    
    13    6   77 1    
    14    6   78 1    
    15    7    8 1    
    16    8    9 1    
    17    8   79 1    
    18    8   80 1    
    19    9   10 ar   
    20    9   14 ar   
    21   10   11 ar   
    22   10   81 1    
    23   11   12 ar   
    24   11   71 1    
    25   12   13 ar   
    26   12   82 1    
    27   13   14 ar   
    28   13   15 1    
    29   14   83 1    
    30   15   16 1    
    31   15   84 1    
    32   15   85 1    
    33   16   17 1    
    34   17   18 1    
    35   17   86 1    
    36   17   87 1    
    37   18   19 1    
    38   18   37 1    
    39   18   88 1    
    40   19   20 am   BACKBONE|DICT|INTERRES
    41   19   89 1    
    42   20   21 2    
    43   20   22 1    
    44   22   23 1    
    45   22   24 1    
    46   22   90 1    
    47   23   91 1    
    48   23   92 1    
    49   23   93 1    
    50   24   25 am   BACKBONE|DICT|INTERRES
    51   24   94 1    
    52   25   26 2    
    53   25   27 1    
    54   27   28 1    
    55   27   29 1    
    56   27   95 1    
    57   28   96 1    
    58   28   97 1    
    59   28   98 1    
    60   29   30 am   BACKBONE|DICT|INTERRES
    61   29   99 1    
    62   30   31 2    
    63   30   32 1    
    64   32   33 1    
    65   32   34 1    
    66   32  100 1    
    67   33  101 1    
    68   33  102 1    
    69   33  103 1    
    70   34   35 am   BACKBONE|DICT|INTERRES
    71   34  104 1    
    72   35   36 2    
    73   37   38 2    
    74   37   39 am   BACKBONE|DICT|INTERRES
    75   39   40 1    
    76   39  105 1    
    77   40   41 1    
    78   40   42 1    
    79   40  106 1    
    80   41  107 1    
    81   41  108 1    
    82   41  109 1    
    83   42   43 2    
    84   42   44 am   BACKBONE|DICT|INTERRES
    85   44   45 1    
    86   44  110 1    
    87   45   46 1    
    88   45   47 1    
    89   45  111 1    
    90   46  112 1    
    91   46  113 1    
    92   46  114 1    
    93   47   48 2    
    94   47   49 am   BACKBONE|DICT|INTERRES
    95   49   50 1    
    96   49  115 1    
    97   50   51 1    
    98   50   52 1    
    99   50  116 1    
   100   51  117 1    
   101   51  118 1    
   102   51  119 1    
   103   52   53 2    
   104   52   54 am   BACKBONE|DICT|INTERRES
   105   54   55 1    
   106   54  120 1    
   107   55   56 1    
   108   55   57 1    
   109   55  121 1    
   110   56  122 1    
   111   56  123 1    
   112   56  124 1    
   113   57   58 2    
   114   57   59 am   BACKBONE|DICT|INTERRES
   115   59   60 1    
   116   59  125 1    
   117   60   61 1    
   118   60   62 1    
   119   60  126 1    
   120   61  127 1    
   121   61  128 1    
   122   61  129 1    
   123   62   63 2    
   124   62   64 am   BACKBONE|DICT|INTERRES
   125   64   65 1    
   126   64  130 1    
   127   65   66 1    
   128   65   69 1    
   129   65  131 1    
   130   66   67 am   BACKBONE|DICT|INTERRES
   131   66   68 2    
   132   67  132 1    
   133   67  133 1    
   134   69   70 1    
   135   69  134 1    
   136   69  135 1    
   137   70   71 1    
   138   71  136 1    
   139   71  137 1    
@<TRIPOS>SUBSTRUCTURE
     1 UNK         1 GROUP             0       ****    0 ROOT    
