@<TRIPOS>MOLECULE
3R137
137   139    1
SMALL
USER_CHARGES


@<TRIPOS>ATOM
      1 CA         25.7732   -4.7229    0.5135 C.3       0 UNK        -0.2020 
      2 C          25.8502   -3.9658   -0.8028 C.2       0 UNK         0.4855 
      3 O          25.2295   -2.9116   -0.9386 O.2       0 UNK        -0.5197 
      4 N          26.5938   -4.5046   -1.7802 N.am      1 UNK        -0.4892 
      5 CA         26.8702   -3.9026   -3.0954 C.3       1 UNK         0.0835 
      6 C6         27.8454   -4.7600   -3.9466 C.3       12 UNK        -0.0855 
      7 S7         29.2709   -5.4236   -3.0088 S.3       12 UNK        -0.2931 
      8 C8         30.6972   -4.5548   -3.7515 C.3       12 UNK         0.0378 
      9 C9         30.9513   -3.1248   -3.2675 C.ar      12 UNK        -0.0802 
     10 C10        32.0345   -2.4312   -3.8182 C.ar      12 UNK        -0.0944 
     11 C11        32.3262   -1.1228   -3.4234 C.ar      12 UNK        -0.0787 
     12 C12        31.5135   -0.4942   -2.4774 C.ar      12 UNK        -0.0862 
     13 C13        30.4229   -1.1675   -1.9195 C.ar      12 UNK        -0.0733 
     14 C14        30.1628   -2.4870   -2.2989 C.ar      12 UNK        -0.0832 
     15 C15        29.5203   -0.4654   -0.9120 C.3       12 UNK         0.0240 
     16 S16        27.8863   -0.0440   -1.6110 S.3       12 UNK        -0.2522 
     17 C17        28.3360    0.9299   -3.0882 C.3       12 UNK        -0.0967 
     18 CA         28.0093    0.1322   -4.3826 C.3       5 UNK         0.0660 
     19 N          26.5701    0.0549   -4.6525 N.am      5 UNK        -0.4015 
     20 C          25.7795    1.0602   -5.0625 C.2       4 UNK         0.4946 
     21 O          26.1717    2.2125   -5.2556 O.2       4 UNK        -0.5353 
     22 CA         24.3018    0.7278   -5.3002 C.3       4 UNK         0.0277 
     23 CB         24.1126    0.0811   -6.6818 C.3       4 UNK        -0.1981 
     24 N          23.8013   -0.1892   -4.2793 N.am      4 UNK        -0.4209 
     25 C          23.0124    0.1401   -3.2479 C.2       3 UNK         0.4942 
     26 O          22.6135    1.2868   -3.0373 O.2       3 UNK        -0.5208 
     27 CA         22.6067   -0.9892   -2.2733 C.3       3 UNK         0.0250 
     28 CB         21.1244   -0.8991   -1.8524 C.3       3 UNK        -0.1990 
     29 N          22.9482   -2.3388   -2.7465 N.am      3 UNK        -0.4232 
     30 C          22.4714   -2.9785   -3.8292 C.2       2 UNK         0.4993 
     31 O          21.5389   -2.5569   -4.5143 O.2       2 UNK        -0.5286 
     32 CA         23.1875   -4.2811   -4.2515 C.3       2 UNK         0.0209 
     33 CB         23.1982   -4.4656   -5.7848 C.3       2 UNK        -0.1931 
     34 N          24.5511   -4.4154   -3.7155 N.am      2 UNK        -0.4546 
     35 C          25.5926   -3.5865   -3.9002 C.2       1 UNK         0.5154 
     36 O          25.5533   -2.5754   -4.6043 O.2       1 UNK        -0.5181 
     37 C          28.7475    0.6025   -5.6506 C.2       5 UNK         0.5014 
     38 O          28.6386   -0.0734   -6.6761 O.2       5 UNK        -0.5248 
     39 N          29.4404    1.7489   -5.5963 N.am      6 UNK        -0.4434 
     40 CA         30.2163    2.3159   -6.7029 C.3       6 UNK         0.0363 
     41 CB         30.9550    3.5743   -6.2231 C.3       6 UNK        -0.1936 
     42 C          29.4122    2.6065   -7.9795 C.2       6 UNK         0.5081 
     43 O          29.9936    2.5592   -9.0627 O.2       6 UNK        -0.5248 
     44 N          28.0987    2.8418   -7.8502 N.am      7 UNK        -0.4718 
     45 CA         27.1843    3.0185   -8.9820 C.3       7 UNK         0.0273 
     46 CB         25.8469    3.5807   -8.4740 C.3       7 UNK        -0.1935 
     47 C          26.9631    1.7362   -9.8098 C.2       7 UNK         0.5018 
     48 O          26.5536    1.8456  -10.9663 O.2       7 UNK        -0.5186 
     49 N          27.2365    0.5618   -9.2228 N.am      8 UNK        -0.4240 
     50 CA         27.1659   -0.7396   -9.8896 C.3       8 UNK         0.0235 
     51 CB         26.2692   -1.6869   -9.0744 C.3       8 UNK        -0.2000 
     52 C          28.5617   -1.3516  -10.0732 C.2       8 UNK         0.4941 
     53 O          28.8622   -1.8529  -11.1568 O.2       8 UNK        -0.5273 
     54 N          29.3813   -1.3221   -9.0140 N.am      9 UNK        -0.4262 
     55 CA         30.6835   -1.9871   -8.9507 C.3       9 UNK         0.0264 
     56 CB         31.0246   -2.2694   -7.4777 C.3       9 UNK        -0.1955 
     57 C          31.8255   -1.2222   -9.6430 C.2       9 UNK         0.5031 
     58 O          32.8460   -1.8476   -9.9346 O.2       9 UNK        -0.5390 
     59 N          31.6512    0.0877   -9.8929 N.am      10 UNK        -0.4204 
     60 CA         32.6203    1.0029  -10.5172 C.3       10 UNK         0.0237 
     61 CB         32.8144    0.6574  -12.0095 C.3       10 UNK        -0.1985 
     62 C          33.9469    1.0733   -9.7336 C.2       10 UNK         0.4970 
     63 O          35.0158    0.8146  -10.2901 O.2       10 UNK        -0.4914 
     64 N          33.8345    1.3913   -8.4380 N.am      11 UNK        -0.4285 
     65 CA         34.9306    1.3799   -7.4522 C.3       11 UNK         0.1007 
     66 C          36.0523    2.4350   -7.6830 C.2       11 UNK         0.5703 
     67 N          35.8436    3.4623   -8.4981 N.am      11 UNK        -0.7361 
     68 O          37.1330    2.3158   -7.1104 O.2       11 UNK        -0.4986 
     69 C69        34.3949    1.4737   -5.9968 C.3       12 UNK        -0.0947 
     70 S70        33.0497    0.2926   -5.6514 S.3       12 UNK        -0.2240 
     71 C71        33.5063   -0.3808   -4.0319 C.3       12 UNK         0.0194 
     72 H72        26.3613   -5.6402    0.4924 H         1 UNK         0.0906 
     73 H73        26.1467   -4.0991    1.3252 H         1 UNK         0.0906 
     74 H74        24.7394   -4.9867    0.7346 H         1 UNK         0.0906 
     75 H75        27.0892   -5.3687   -1.6040 H         1 UNK         0.3140 
     76 H76        27.3424   -2.9384   -2.9019 H         1 UNK         0.1085 
     77 H77        27.3236   -5.6197   -4.3725 H         1 UNK         0.0836 
     78 H78        28.2057   -4.1792   -4.7983 H         1 UNK         0.0836 
     79 H79        31.5883   -5.1457   -3.5348 H         1 UNK         0.0731 
     80 H80        30.5901   -4.5563   -4.8373 H         1 UNK         0.0731 
     81 H81        32.6558   -2.9101   -4.5632 H         1 UNK         0.1312 
     82 H82        31.7263    0.5244   -2.1828 H         1 UNK         0.1406 
     83 H83        29.3350   -3.0002   -1.8338 H         1 UNK         0.1631 
     84 H84        29.9918    0.4456   -0.5399 H         1 UNK         0.0717 
     85 H85        29.3766   -1.1100   -0.0437 H         1 UNK         0.0717 
     86 H86        27.7972    1.8785   -3.0605 H         1 UNK         0.0934 
     87 H87        29.3933    1.1853   -3.0223 H         1 UNK         0.0934 
     88 H88        28.3481   -0.8952   -4.2391 H         1 UNK         0.0739 
     89 H89        26.1715   -0.8793   -4.5971 H         1 UNK         0.3093 
     90 H90        23.7403    1.6642   -5.2801 H         1 UNK         0.0818 
     91 H91        23.0557   -0.0655   -6.9051 H         1 UNK         0.0819 
     92 H92        24.5286    0.7032   -7.4746 H         1 UNK         0.0819 
     93 H93        24.6001   -0.8925   -6.7381 H         1 UNK         0.0819 
     94 H94        24.1100   -1.1519   -4.3545 H         1 UNK         0.3041 
     95 H95        23.2105   -0.8340   -1.3777 H         1 UNK         0.0784 
     96 H96        20.9183    0.0457   -1.3480 H         1 UNK         0.0793 
     97 H97        20.4532   -0.9592   -2.7095 H         1 UNK         0.0793 
     98 H98        20.8591   -1.6981   -1.1602 H         1 UNK         0.0793 
     99 H99        23.7256   -2.7633   -2.2470 H         1 UNK         0.3024 
    100 H100       22.6021   -5.0956   -3.8216 H         1 UNK         0.1171 
    101 H101       23.7015   -5.3893   -6.0700 H         1 UNK         0.0786 
    102 H102       23.7017   -3.6399   -6.2891 H         1 UNK         0.0786 
    103 H103       22.1837   -4.5174   -6.1821 H         1 UNK         0.0786 
    104 H104       24.6963   -5.1938   -3.0865 H         1 UNK         0.2977 
    105 H105       29.4369    2.2753   -4.7355 H         1 UNK         0.3127 
    106 H106       30.9573    1.5694   -6.9852 H         1 UNK         0.0770 
    107 H107       30.2602    4.3525   -5.9049 H         1 UNK         0.0814 
    108 H108       31.5719    3.9936   -7.0193 H         1 UNK         0.0814 
    109 H109       31.6177    3.3510   -5.3868 H         1 UNK         0.0814 
    110 H110       27.6868    2.8297   -6.9243 H         1 UNK         0.2983 
    111 H111       27.6258    3.7569   -9.6552 H         1 UNK         0.0947 
    112 H112       25.1534    3.7471   -9.2994 H         1 UNK         0.0806 
    113 H113       25.9853    4.5379   -7.9710 H         1 UNK         0.0806 
    114 H114       25.3617    2.9031   -7.7726 H         1 UNK         0.0806 
    115 H115       27.5988    0.5665   -8.2750 H         1 UNK         0.3000 
    116 H116       26.7248   -0.6384  -10.8837 H         1 UNK         0.0850 
    117 H117       26.2571   -2.6871   -9.5098 H         1 UNK         0.0810 
    118 H118       25.2390   -1.3324   -9.0603 H         1 UNK         0.0810 
    119 H119       26.6087   -1.7834   -8.0419 H         1 UNK         0.0810 
    120 H120       29.0575   -0.8933   -8.1464 H         1 UNK         0.3040 
    121 H121       30.5989   -2.9504   -9.4586 H         1 UNK         0.0766 
    122 H122       32.0033   -2.7409   -7.3793 H         1 UNK         0.0812 
    123 H123       30.2945   -2.9394   -7.0237 H         1 UNK         0.0812 
    124 H124       31.0420   -1.3541   -6.8878 H         1 UNK         0.0812 
    125 H125       30.7778    0.5160   -9.6110 H         1 UNK         0.3205 
    126 H126       32.1841    2.0015  -10.4713 H         1 UNK         0.0754 
    127 H127       33.4594    1.3887  -12.4983 H         1 UNK         0.0769 
    128 H128       31.8631    0.6575  -12.5418 H         1 UNK         0.0769 
    129 H129       33.2734   -0.3224  -12.1452 H         1 UNK         0.0769 
    130 H130       32.9176    1.5770   -8.0640 H         1 UNK         0.2981 
    131 H131       35.4167    0.4076   -7.5529 H         1 UNK         0.0541 
    132 H132       34.9636    3.5650   -8.9764 H         1 UNK         0.3459 
    133 H133       36.5791    4.1363   -8.6412 H         1 UNK         0.3459 
    134 H134       34.0148    2.4764   -5.7937 H         1 UNK         0.0612 
    135 H135       35.2062    1.3040   -5.2864 H         1 UNK         0.0612 
    136 H136       34.3604   -1.0505   -4.1424 H         1 UNK         0.0624 
    137 H137       33.8240    0.4307   -3.3753 H         1 UNK         0.0624 
@<TRIPOS>BOND
     1    1    2 1    
     2    1   72 1    
     3    1   73 1    
     4    1   74 1    
     5    2    3 2    
     6    2    4 am   BACKBONE|DICT|INTERRES
     7    4    5 1    
     8    4   75 1    
     9    5    6 1    
    10    5   35 1    
    11    5   76 1    
    12    6    7 1    
    13    6   77 1    
    14    6   78 1    
    15    7    8 1    
    16    8    9 1    
    17    8   79 1    
    18    8   80 1    
    19    9   10 ar   
    20    9   14 ar   
    21   10   11 ar   
    22   10   81 1    
    23   11   12 ar   
    24   11   71 1    
    25   12   13 ar   
    26   12   82 1    
    27   13   14 ar   
    28   13   15 1    
    29   14   83 1    
    30   15   16 1    
    31   15   84 1    
    32   15   85 1    
    33   16   17 1    
    34   17   18 1    
    35   17   86 1    
    36   17   87 1    
    37   18   19 1    
    38   18   37 1    
    39   18   88 1    
    40   19   20 am   BACKBONE|DICT|INTERRES
    41   19   89 1    
    42   20   21 2    
    43   20   22 1    
    44   22   23 1    
    45   22   24 1    
    46   22   90 1    
    47   23   91 1    
    48   23   92 1    
    49   23   93 1    
    50   24   25 am   BACKBONE|DICT|INTERRES
    51   24   94 1    
    52   25   26 2    
    53   25   27 1    
    54   27   28 1    
    55   27   29 1    
    56   27   95 1    
    57   28   96 1    
    58   28   97 1    
    59   28   98 1    
    60   29   30 am   BACKBONE|DICT|INTERRES
    61   29   99 1    
    62   30   31 2    
    63   30   32 1    
    64   32   33 1    
    65   32   34 1    
    66   32  100 1    
    67   33  101 1    
    68   33  102 1    
    69   33  103 1    
    70   34   35 am   BACKBONE|DICT|INTERRES
    71   34  104 1    
    72   35   36 2    
    73   37   38 2    
    74   37   39 am   BACKBONE|DICT|INTERRES
    75   39   40 1    
    76   39  105 1    
    77   40   41 1    
    78   40   42 1    
    79   40  106 1    
    80   41  107 1    
    81   41  108 1    
    82   41  109 1    
    83   42   43 2    
    84   42   44 am   BACKBONE|DICT|INTERRES
    85   44   45 1    
    86   44  110 1    
    87   45   46 1    
    88   45   47 1    
    89   45  111 1    
    90   46  112 1    
    91   46  113 1    
    92   46  114 1    
    93   47   48 2    
    94   47   49 am   BACKBONE|DICT|INTERRES
    95   49   50 1    
    96   49  115 1    
    97   50   51 1    
    98   50   52 1    
    99   50  116 1    
   100   51  117 1    
   101   51  118 1    
   102   51  119 1    
   103   52   53 2    
   104   52   54 am   BACKBONE|DICT|INTERRES
   105   54   55 1    
   106   54  120 1    
   107   55   56 1    
   108   55   57 1    
   109   55  121 1    
   110   56  122 1    
   111   56  123 1    
   112   56  124 1    
   113   57   58 2    
   114   57   59 am   BACKBONE|DICT|INTERRES
   115   59   60 1    
   116   59  125 1    
   117   60   61 1    
   118   60   62 1    
   119   60  126 1    
   120   61  127 1    
   121   61  128 1    
   122   61  129 1    
   123   62   63 2    
   124   62   64 am   BACKBONE|DICT|INTERRES
   125   64   65 1    
   126   64  130 1    
   127   65   66 1    
   128   65   69 1    
   129   65  131 1    
   130   66   67 am   BACKBONE|DICT|INTERRES
   131   66   68 2    
   132   67  132 1    
   133   67  133 1    
   134   69   70 1    
   135   69  134 1    
   136   69  135 1    
   137   70   71 1    
   138   71  136 1    
   139   71  137 1    
@<TRIPOS>SUBSTRUCTURE
     1 UNK         1 GROUP             0       ****    0 ROOT    
