@<TRIPOS>MOLECULE
3R137
137   139    1
SMALL
USER_CHARGES


@<TRIPOS>ATOM
      1 CA         27.1199   -4.7897    1.9925 C.3       0 UNK        -0.2020 
      2 C          26.8390   -4.2444    0.6001 C.2       0 UNK         0.4855 
      3 O          26.4160   -3.0954    0.4667 O.2       0 UNK        -0.5197 
      4 N          27.0797   -5.0552   -0.4374 N.am      1 UNK        -0.4892 
      5 CA         26.8248   -4.7141   -1.8414 C.3       1 UNK         0.0835 
      6 C6         27.5804   -5.6599   -2.8078 C.3       12 UNK        -0.0855 
      7 S7         29.3824   -5.3912   -2.7135 S.3       12 UNK        -0.2931 
      8 C8         29.6049   -4.1922   -4.0657 C.3       12 UNK         0.0378 
      9 C9         30.7247   -3.2083   -3.7662 C.ar      12 UNK        -0.0802 
     10 C10        31.9411   -3.2791   -4.4531 C.ar      12 UNK        -0.0944 
     11 C11        32.9420   -2.3305   -4.2206 C.ar      12 UNK        -0.0787 
     12 C12        32.7306   -1.3253   -3.2737 C.ar      12 UNK        -0.0862 
     13 C13        31.5208   -1.2454   -2.5797 C.ar      12 UNK        -0.0733 
     14 C14        30.5234   -2.1930   -2.8261 C.ar      12 UNK        -0.0832 
     15 C15        31.2938   -0.1250   -1.5748 C.3       12 UNK         0.0240 
     16 S16        29.8899    0.9477   -2.0212 S.3       12 UNK        -0.2522 
     17 C17        30.3181    1.5080   -3.7089 C.3       12 UNK        -0.0967 
     18 CA         29.2485    1.0876   -4.7504 C.3       5 UNK         0.0660 
     19 N          27.9097    1.5527   -4.3571 N.am      5 UNK        -0.4015 
     20 C          26.7712    1.3778   -5.0379 C.2       4 UNK         0.4946 
     21 O          26.7023    0.8556   -6.1549 O.2       4 UNK        -0.5353 
     22 CA         25.4985    1.9239   -4.3853 C.3       4 UNK         0.0277 
     23 CB         25.2889    3.4082   -4.7326 C.3       4 UNK        -0.1981 
     24 N          24.3827    1.1297   -4.8789 N.am      4 UNK        -0.4209 
     25 C          23.2517    0.8600   -4.2213 C.2       3 UNK         0.4942 
     26 O          22.9496    1.3584   -3.1358 O.2       3 UNK        -0.5208 
     27 CA         22.3011   -0.1679   -4.8669 C.3       3 UNK         0.0250 
     28 CB         22.3789   -0.1976   -6.4113 C.3       3 UNK        -0.1990 
     29 N          22.4882   -1.5127   -4.3024 N.am      3 UNK        -0.4232 
     30 C          23.6250   -2.2245   -4.2792 C.2       2 UNK         0.4993 
     31 O          24.6863   -1.8579   -4.7912 O.2       2 UNK        -0.5286 
     32 CA         23.5813   -3.5843   -3.5733 C.3       2 UNK         0.0209 
     33 CB         23.0702   -4.6859   -4.5199 C.3       2 UNK        -0.1931 
     34 N          24.9445   -3.8793   -3.1472 N.am      2 UNK        -0.4546 
     35 C          25.3139   -4.6900   -2.1528 C.2       1 UNK         0.5154 
     36 O          24.5292   -5.3975   -1.5145 O.2       1 UNK        -0.5181 
     37 C          29.6566    1.5577   -6.1622 C.2       5 UNK         0.5014 
     38 O          30.1624    0.7622   -6.9570 O.2       5 UNK        -0.5248 
     39 N          29.3832    2.8357   -6.4554 N.am      6 UNK        -0.4434 
     40 CA         29.6531    3.4753   -7.7426 C.3       6 UNK         0.0363 
     41 CB         29.7743    4.9923   -7.5247 C.3       6 UNK        -0.1936 
     42 C          28.5955    3.1714   -8.8204 C.2       6 UNK         0.5081 
     43 O          28.8489    3.4599   -9.9897 O.2       6 UNK        -0.5248 
     44 N          27.4366    2.6230   -8.4312 N.am      7 UNK        -0.4718 
     45 CA         26.3344    2.3021   -9.3393 C.3       7 UNK         0.0273 
     46 CB         24.9906    2.6244   -8.6624 C.3       7 UNK        -0.1935 
     47 C          26.3831    0.8333   -9.7768 C.2       7 UNK         0.5018 
     48 O          26.2890    0.5587  -10.9734 O.2       7 UNK        -0.5186 
     49 N          26.5120   -0.0803   -8.8050 N.am      8 UNK        -0.4240 
     50 CA         26.5004   -1.5247   -9.0322 C.3       8 UNK         0.0235 
     51 CB         26.0656   -2.2525   -7.7487 C.3       8 UNK        -0.2000 
     52 C          27.8563   -2.0416   -9.5257 C.2       8 UNK         0.4941 
     53 O          27.9256   -2.6364  -10.6020 O.2       8 UNK        -0.5273 
     54 N          28.9017   -1.8273   -8.7174 N.am      9 UNK        -0.4262 
     55 CA         30.2415   -2.3689   -8.9562 C.3       9 UNK         0.0264 
     56 CB         30.8632   -2.7401   -7.6033 C.3       9 UNK        -0.1955 
     57 C          31.1601   -1.4070   -9.7261 C.2       9 UNK         0.5031 
     58 O          32.1858   -1.8533  -10.2415 O.2       9 UNK        -0.5390 
     59 N          30.7917   -0.1178   -9.7738 N.am      10 UNK        -0.4204 
     60 CA         31.5667    1.0091  -10.3107 C.3       10 UNK         0.0237 
     61 CB         31.8128    0.8577  -11.8276 C.3       10 UNK        -0.1985 
     62 C          32.8557    1.2843   -9.5081 C.2       10 UNK         0.4970 
     63 O          33.8381    1.7682  -10.0734 O.2       10 UNK        -0.4914 
     64 N          32.8266    0.9774   -8.2059 N.am      11 UNK        -0.4285 
     65 CA         33.9272    1.2021   -7.2634 C.3       11 UNK         0.1007 
     66 C          33.9300    2.6677   -6.7589 C.2       11 UNK         0.5703 
     67 N          35.0958    3.2922   -6.6654 N.am      11 UNK        -0.7361 
     68 O          32.8922    3.2279   -6.4125 O.2       11 UNK        -0.4986 
     69 C69        33.8562    0.2104   -6.0764 C.3       12 UNK        -0.0947 
     70 S70        34.1149   -1.5173   -6.6007 S.3       12 UNK        -0.2240 
     71 C71        34.2479   -2.3772   -5.0005 C.3       12 UNK         0.0194 
     72 H72        27.8564   -4.1659    2.4983 H         1 UNK         0.0906 
     73 H73        26.2064   -4.7888    2.5866 H         1 UNK         0.0906 
     74 H74        27.5034   -5.8094    1.9620 H         1 UNK         0.0906 
     75 H75        27.4154   -5.9931   -0.2707 H         1 UNK         0.3140 
     76 H76        27.1953   -3.6982   -2.0001 H         1 UNK         0.1085 
     77 H77        27.3663   -6.7038   -2.5707 H         1 UNK         0.0836 
     78 H78        27.2574   -5.5191   -3.8417 H         1 UNK         0.0836 
     79 H79        29.7971   -4.7355   -4.9919 H         1 UNK         0.0731 
     80 H80        28.6852   -3.6277   -4.2273 H         1 UNK         0.0731 
     81 H81        32.1016   -4.0557   -5.1883 H         1 UNK         0.1312 
     82 H82        33.5043   -0.5916   -3.0930 H         1 UNK         0.1406 
     83 H83        29.5831   -2.1302   -2.2951 H         1 UNK         0.1631 
     84 H84        32.1866    0.4937   -1.4709 H         1 UNK         0.0717 
     85 H85        31.1066   -0.5608   -0.5925 H         1 UNK         0.0717 
     86 H86        31.2988    1.1217   -3.9892 H         1 UNK         0.0934 
     87 H87        30.4267    2.5941   -3.6821 H         1 UNK         0.0934 
     88 H88        29.2101   -0.0036   -4.7786 H         1 UNK         0.0739 
     89 H89        27.8629    1.9870   -3.4463 H         1 UNK         0.3093 
     90 H90        25.5784    1.8025   -3.3027 H         1 UNK         0.0818 
     91 H91        24.3735    3.7935   -4.2833 H         1 UNK         0.0819 
     92 H92        26.1121    4.0193   -4.3608 H         1 UNK         0.0819 
     93 H93        25.2235    3.5677   -5.8090 H         1 UNK         0.0819 
     94 H94        24.6059    0.5835   -5.7025 H         1 UNK         0.3041 
     95 H95        21.2896    0.1425   -4.5999 H         1 UNK         0.0784 
     96 H96        22.2300    0.7988   -6.8297 H         1 UNK         0.0793 
     97 H97        23.3366   -0.5662   -6.7768 H         1 UNK         0.0793 
     98 H98        21.6023   -0.8391   -6.8278 H         1 UNK         0.0793 
     99 H99        21.6772   -1.8978   -3.8378 H         1 UNK         0.3024 
    100 H100       22.9349   -3.5118   -2.6955 H         1 UNK         0.1171 
    101 H101       23.6988   -4.7759   -5.4069 H         1 UNK         0.0786 
    102 H102       22.0555   -4.4724   -4.8582 H         1 UNK         0.0786 
    103 H103       23.0481   -5.6572   -4.0254 H         1 UNK         0.0786 
    104 H104       25.6307   -3.3030   -3.6220 H         1 UNK         0.2977 
    105 H105       28.9573    3.4125   -5.7448 H         1 UNK         0.3127 
    106 H106       30.6139    3.1140   -8.1132 H         1 UNK         0.0770 
    107 H107       28.8466    5.4232   -7.1462 H         1 UNK         0.0814 
    108 H108       30.0143    5.5035   -8.4581 H         1 UNK         0.0814 
    109 H109       30.5705    5.2267   -6.8176 H         1 UNK         0.0814 
    110 H110       27.3270    2.3354   -7.4664 H         1 UNK         0.2983 
    111 H111       26.4029    2.9182  -10.2391 H         1 UNK         0.0947 
    112 H112       24.1576    2.4157   -9.3350 H         1 UNK         0.0806 
    113 H113       24.9285    3.6780   -8.3902 H         1 UNK         0.0806 
    114 H114       24.8319    2.0348   -7.7596 H         1 UNK         0.0806 
    115 H115       26.5885    0.2360   -7.8389 H         1 UNK         0.3000 
    116 H116       25.7617   -1.7521   -9.8044 H         1 UNK         0.0850 
    117 H117       26.1362   -3.3348   -7.8646 H         1 UNK         0.0810 
    118 H118       25.0290   -2.0263   -7.5040 H         1 UNK         0.0810 
    119 H119       26.6757   -1.9739   -6.8884 H         1 UNK         0.0810 
    120 H120       28.7634   -1.3103   -7.8596 H         1 UNK         0.3040 
    121 H121       30.1658   -3.2845   -9.5470 H         1 UNK         0.0766 
    122 H122       31.8453   -3.1947   -7.7382 H         1 UNK         0.0812 
    123 H123       30.9924   -1.8676   -6.9612 H         1 UNK         0.0812 
    124 H124       30.2450   -3.4617   -7.0707 H         1 UNK         0.0812 
    125 H125       29.9561    0.1318   -9.2623 H         1 UNK         0.3205 
    126 H126       30.9454    1.8926  -10.1794 H         1 UNK         0.0754 
    127 H127       32.2376    1.7707  -12.2464 H         1 UNK         0.0769 
    128 H128       30.8833    0.6604  -12.3616 H         1 UNK         0.0769 
    129 H129       32.5074    0.0473  -12.0496 H         1 UNK         0.0769 
    130 H130       31.9531    0.6621   -7.7967 H         1 UNK         0.2981 
    131 H131       34.8684    1.0236   -7.7879 H         1 UNK         0.0541 
    132 H132       35.1154    4.2402   -6.3239 H         1 UNK         0.3459 
    133 H133       35.9548    2.8392   -6.9362 H         1 UNK         0.3459 
    134 H134       32.8872    0.2851   -5.5815 H         1 UNK         0.0612 
    135 H135       34.6135    0.4512   -5.3279 H         1 UNK         0.0612 
    136 H136       34.5304   -3.4151   -5.1824 H         1 UNK         0.0624 
    137 H137       35.0594   -1.9373   -4.4188 H         1 UNK         0.0624 
@<TRIPOS>BOND
     1    1    2 1    
     2    1   72 1    
     3    1   73 1    
     4    1   74 1    
     5    2    3 2    
     6    2    4 am   BACKBONE|DICT|INTERRES
     7    4    5 1    
     8    4   75 1    
     9    5    6 1    
    10    5   35 1    
    11    5   76 1    
    12    6    7 1    
    13    6   77 1    
    14    6   78 1    
    15    7    8 1    
    16    8    9 1    
    17    8   79 1    
    18    8   80 1    
    19    9   10 ar   
    20    9   14 ar   
    21   10   11 ar   
    22   10   81 1    
    23   11   12 ar   
    24   11   71 1    
    25   12   13 ar   
    26   12   82 1    
    27   13   14 ar   
    28   13   15 1    
    29   14   83 1    
    30   15   16 1    
    31   15   84 1    
    32   15   85 1    
    33   16   17 1    
    34   17   18 1    
    35   17   86 1    
    36   17   87 1    
    37   18   19 1    
    38   18   37 1    
    39   18   88 1    
    40   19   20 am   BACKBONE|DICT|INTERRES
    41   19   89 1    
    42   20   21 2    
    43   20   22 1    
    44   22   23 1    
    45   22   24 1    
    46   22   90 1    
    47   23   91 1    
    48   23   92 1    
    49   23   93 1    
    50   24   25 am   BACKBONE|DICT|INTERRES
    51   24   94 1    
    52   25   26 2    
    53   25   27 1    
    54   27   28 1    
    55   27   29 1    
    56   27   95 1    
    57   28   96 1    
    58   28   97 1    
    59   28   98 1    
    60   29   30 am   BACKBONE|DICT|INTERRES
    61   29   99 1    
    62   30   31 2    
    63   30   32 1    
    64   32   33 1    
    65   32   34 1    
    66   32  100 1    
    67   33  101 1    
    68   33  102 1    
    69   33  103 1    
    70   34   35 am   BACKBONE|DICT|INTERRES
    71   34  104 1    
    72   35   36 2    
    73   37   38 2    
    74   37   39 am   BACKBONE|DICT|INTERRES
    75   39   40 1    
    76   39  105 1    
    77   40   41 1    
    78   40   42 1    
    79   40  106 1    
    80   41  107 1    
    81   41  108 1    
    82   41  109 1    
    83   42   43 2    
    84   42   44 am   BACKBONE|DICT|INTERRES
    85   44   45 1    
    86   44  110 1    
    87   45   46 1    
    88   45   47 1    
    89   45  111 1    
    90   46  112 1    
    91   46  113 1    
    92   46  114 1    
    93   47   48 2    
    94   47   49 am   BACKBONE|DICT|INTERRES
    95   49   50 1    
    96   49  115 1    
    97   50   51 1    
    98   50   52 1    
    99   50  116 1    
   100   51  117 1    
   101   51  118 1    
   102   51  119 1    
   103   52   53 2    
   104   52   54 am   BACKBONE|DICT|INTERRES
   105   54   55 1    
   106   54  120 1    
   107   55   56 1    
   108   55   57 1    
   109   55  121 1    
   110   56  122 1    
   111   56  123 1    
   112   56  124 1    
   113   57   58 2    
   114   57   59 am   BACKBONE|DICT|INTERRES
   115   59   60 1    
   116   59  125 1    
   117   60   61 1    
   118   60   62 1    
   119   60  126 1    
   120   61  127 1    
   121   61  128 1    
   122   61  129 1    
   123   62   63 2    
   124   62   64 am   BACKBONE|DICT|INTERRES
   125   64   65 1    
   126   64  130 1    
   127   65   66 1    
   128   65   69 1    
   129   65  131 1    
   130   66   67 am   BACKBONE|DICT|INTERRES
   131   66   68 2    
   132   67  132 1    
   133   67  133 1    
   134   69   70 1    
   135   69  134 1    
   136   69  135 1    
   137   70   71 1    
   138   71  136 1    
   139   71  137 1    
@<TRIPOS>SUBSTRUCTURE
     1 UNK         1 GROUP             0       ****    0 ROOT    
