@<TRIPOS>MOLECULE
3R137
137   139    1
SMALL
USER_CHARGES


@<TRIPOS>ATOM
      1 CA         31.2739   -0.0690   -0.1222 C.3       0 UNK        -0.2020 
      2 C          30.4307   -0.4150   -1.3392 C.2       0 UNK         0.4855 
      3 O          30.5359    0.2560   -2.3641 O.2       0 UNK        -0.5197 
      4 N          29.5827   -1.4463   -1.2272 N.am      1 UNK        -0.4892 
      5 CA         28.7401   -1.9989   -2.3020 C.3       1 UNK         0.0835 
      6 C6         28.1197   -3.3620   -1.8988 C.3       12 UNK        -0.0855 
      7 S7         29.3776   -4.5617   -1.3303 S.3       12 UNK        -0.2931 
      8 C8         29.3409   -5.8436   -2.6278 C.3       12 UNK         0.0378 
      9 C9         29.7228   -5.3207   -4.0083 C.ar      12 UNK        -0.0802 
     10 C10        30.9379   -4.6592   -4.2135 C.ar      12 UNK        -0.0944 
     11 C11        31.2816   -4.1770   -5.4810 C.ar      12 UNK        -0.0787 
     12 C12        30.4085   -4.3789   -6.5542 C.ar      12 UNK        -0.0862 
     13 C13        29.2020   -5.0584   -6.3672 C.ar      12 UNK        -0.0733 
     14 C14        28.8663   -5.5278   -5.0931 C.ar      12 UNK        -0.0832 
     15 C15        28.2607   -5.2888   -7.5419 C.3       12 UNK         0.0240 
     16 S16        27.2192   -3.8333   -7.8733 S.3       12 UNK        -0.2522 
     17 C17        26.3711   -3.6476   -6.2690 C.3       12 UNK        -0.0967 
     18 CA         25.0269   -2.8816   -6.3264 C.3       5 UNK         0.0660 
     19 N          24.4202   -2.7647   -5.0050 N.am      5 UNK        -0.4015 
     20 C          23.6115   -3.6725   -4.4473 C.2       4 UNK         0.4946 
     21 O          23.2873   -4.7287   -4.9923 O.2       4 UNK        -0.5353 
     22 CA         23.0782   -3.3680   -3.0356 C.3       4 UNK         0.0277 
     23 CB         23.9040   -4.1256   -1.9826 C.3       4 UNK        -0.1981 
     24 N          23.0815   -1.9421   -2.7018 N.am      4 UNK        -0.4209 
     25 C          22.2764   -1.0092   -3.2237 C.2       3 UNK         0.4942 
     26 O          21.3890   -1.2551   -4.0406 O.2       3 UNK        -0.5208 
     27 CA         22.5121    0.4494   -2.7833 C.3       3 UNK         0.0250 
     28 CB         21.8386    0.7348   -1.4265 C.3       3 UNK        -0.1990 
     29 N          23.9236    0.8738   -2.7883 N.am      3 UNK        -0.4232 
     30 C          24.9371    0.4255   -2.0333 C.2       2 UNK         0.4993 
     31 O          24.8169   -0.4292   -1.1514 O.2       2 UNK        -0.5286 
     32 CA         26.3218    1.0249   -2.3222 C.3       2 UNK         0.0209 
     33 CB         26.5612    2.2770   -1.4641 C.3       2 UNK        -0.1931 
     34 N          27.3806    0.0523   -2.0522 N.am      2 UNK        -0.4546 
     35 C          27.6379   -1.0320   -2.7964 C.2       1 UNK         0.5154 
     36 O          27.0334   -1.2858   -3.8403 O.2       1 UNK        -0.5181 
     37 C          25.1267   -1.4769   -6.9383 C.2       5 UNK         0.5014 
     38 O          24.4548   -1.2134   -7.9366 O.2       5 UNK        -0.5248 
     39 N          25.9364   -0.6040   -6.3144 N.am      6 UNK        -0.4434 
     40 CA         26.2627    0.7609   -6.7493 C.3       6 UNK         0.0363 
     41 CB         25.0402    1.6908   -6.5989 C.3       6 UNK        -0.1936 
     42 C          26.8659    0.7819   -8.1686 C.2       6 UNK         0.5081 
     43 O          26.3002    1.3897   -9.0792 O.2       6 UNK        -0.5248 
     44 N          27.9960    0.0779   -8.3257 N.am      7 UNK        -0.4718 
     45 CA         28.7145   -0.1305   -9.5892 C.3       7 UNK         0.0273 
     46 CB         29.9042   -1.0714   -9.3351 C.3       7 UNK        -0.1935 
     47 C          29.2009    1.1526  -10.2908 C.2       7 UNK         0.5018 
     48 O          29.4109    1.1239  -11.5037 O.2       7 UNK        -0.5186 
     49 N          29.4131    2.2327   -9.5250 N.am      8 UNK        -0.4240 
     50 CA         29.8332    3.5877   -9.9153 C.3       8 UNK         0.0235 
     51 CB         28.8666    4.2122  -10.9405 C.3       8 UNK        -0.2000 
     52 C          31.2946    3.6996  -10.3840 C.2       8 UNK         0.4941 
     53 O          31.9222    4.7295  -10.1364 O.2       8 UNK        -0.5273 
     54 N          31.8267    2.6449  -11.0150 N.am      9 UNK        -0.4262 
     55 CA         33.2264    2.5187  -11.4328 C.3       9 UNK         0.0264 
     56 CB         33.3668    1.2913  -12.3478 C.3       9 UNK        -0.1955 
     57 C          34.2157    2.4261  -10.2547 C.2       9 UNK         0.5031 
     58 O          35.3855    2.7733  -10.4251 O.2       9 UNK        -0.5390 
     59 N          33.7344    1.9696   -9.0920 N.am      10 UNK        -0.4204 
     60 CA         34.4775    1.8879   -7.8384 C.3       10 UNK         0.0237 
     61 CB         35.4136    0.6610   -7.8244 C.3       10 UNK        -0.1985 
     62 C          33.4792    1.8812   -6.6772 C.2       10 UNK         0.4970 
     63 O          33.3871    2.8695   -5.9489 O.2       10 UNK        -0.4914 
     64 N          32.7446    0.7711   -6.5425 N.am      11 UNK        -0.4285 
     65 CA         31.7102    0.5624   -5.5198 C.3       11 UNK         0.1007 
     66 C          30.4481    1.4443   -5.7215 C.2       11 UNK         0.5703 
     67 N          29.6817    1.6660   -4.6644 N.am      11 UNK        -0.7361 
     68 O          30.1357    1.8907   -6.8226 O.2       11 UNK        -0.4986 
     69 C69        31.3350   -0.9356   -5.4140 C.3       12 UNK        -0.0947 
     70 S70        32.7066   -1.9161   -4.7205 S.3       12 UNK        -0.2240 
     71 C71        32.6013   -3.4485   -5.6950 C.3       12 UNK         0.0194 
     72 H72        32.3324   -0.1512   -0.3672 H         1 UNK         0.0906 
     73 H73        31.0757    0.9552    0.1923 H         1 UNK         0.0906 
     74 H74        31.0679   -0.7296    0.7196 H         1 UNK         0.0906 
     75 H75        29.5536   -1.9660   -0.3609 H         1 UNK         0.3140 
     76 H76        29.3919   -2.1832   -3.1565 H         1 UNK         0.1085 
     77 H77        27.5645   -3.7925   -2.7349 H         1 UNK         0.0836 
     78 H78        27.3952   -3.2274   -1.0932 H         1 UNK         0.0836 
     79 H79        28.3480   -6.2961   -2.6415 H         1 UNK         0.0731 
     80 H80        30.0350   -6.6387   -2.3525 H         1 UNK         0.0731 
     81 H81        31.6115   -4.5051   -3.3813 H         1 UNK         0.1312 
     82 H82        30.6664   -4.0112   -7.5379 H         1 UNK         0.1406 
     83 H83        27.9341   -6.0561   -4.9468 H         1 UNK         0.1631 
     84 H84        27.6229   -6.1552   -7.3593 H         1 UNK         0.0717 
     85 H85        28.8389   -5.5208   -8.4375 H         1 UNK         0.0717 
     86 H86        26.1816   -4.6436   -5.8671 H         1 UNK         0.0934 
     87 H87        27.0644   -3.1730   -5.5744 H         1 UNK         0.0934 
     88 H88        24.3500   -3.4486   -6.9700 H         1 UNK         0.0739 
     89 H89        24.6365   -1.9244   -4.4882 H         1 UNK         0.3093 
     90 H90        22.0470   -3.7247   -2.9902 H         1 UNK         0.0818 
     91 H91        24.9423   -3.7919   -1.9686 H         1 UNK         0.0819 
     92 H92        23.4940   -3.9871   -0.9820 H         1 UNK         0.0819 
     93 H93        23.9078   -5.1977   -2.1845 H         1 UNK         0.0819 
     94 H94        23.7715   -1.6216   -2.0232 H         1 UNK         0.3041 
     95 H95        22.0175    1.0775   -3.5264 H         1 UNK         0.0784 
     96 H96        20.7721    0.5092   -1.4675 H         1 UNK         0.0793 
     97 H97        22.2639    0.1348   -0.6215 H         1 UNK         0.0793 
     98 H98        21.9367    1.7843   -1.1489 H         1 UNK         0.0793 
     99 H99        24.1363    1.5862   -3.4724 H         1 UNK         0.3024 
    100 H100       26.3766    1.3024   -3.3772 H         1 UNK         0.1171 
    101 H101       27.5353    2.7202   -1.6732 H         1 UNK         0.0786 
    102 H102       25.8089    3.0409   -1.6651 H         1 UNK         0.0786 
    103 H103       26.5178    2.0496   -0.3979 H         1 UNK         0.0786 
    104 H104       27.9050    0.1698   -1.1982 H         1 UNK         0.2977 
    105 H105       26.4348   -0.9236   -5.4827 H         1 UNK         0.3127 
    106 H106       27.0390    1.1258   -6.0753 H         1 UNK         0.0770 
    107 H107       24.2250    1.4025   -7.2633 H         1 UNK         0.0814 
    108 H108       25.3047    2.7210   -6.8405 H         1 UNK         0.0814 
    109 H109       24.6576    1.6841   -5.5800 H         1 UNK         0.0814 
    110 H110       28.3723   -0.3944   -7.5173 H         1 UNK         0.2983 
    111 H111       28.0230   -0.6261  -10.2739 H         1 UNK         0.0947 
    112 H112       30.4224   -1.3059  -10.2661 H         1 UNK         0.0806 
    113 H113       29.5799   -2.0176   -8.9017 H         1 UNK         0.0806 
    114 H114       30.6339   -0.6220   -8.6613 H         1 UNK         0.0806 
    115 H115       29.3393    2.0933   -8.5192 H         1 UNK         0.3000 
    116 H116       29.7628    4.1788   -9.0005 H         1 UNK         0.0850 
    117 H117       29.1151    5.2591  -11.1199 H         1 UNK         0.0810 
    118 H118       27.8368    4.1790  -10.5842 H         1 UNK         0.0810 
    119 H119       28.9051    3.7025  -11.9035 H         1 UNK         0.0810 
    120 H120       31.1982    1.8808  -11.2449 H         1 UNK         0.3040 
    121 H121       33.4861    3.4094  -12.0088 H         1 UNK         0.0766 
    122 H122       32.7310    1.3784  -13.2292 H         1 UNK         0.0812 
    123 H123       33.0996    0.3688  -11.8307 H         1 UNK         0.0812 
    124 H124       34.3936    1.1823  -12.7003 H         1 UNK         0.0812 
    125 H125       32.7478    1.7583   -9.0383 H         1 UNK         0.3205 
    126 H126       35.0880    2.7878   -7.7337 H         1 UNK         0.0754 
    127 H127       36.2115    0.7676   -8.5596 H         1 UNK         0.0769 
    128 H128       34.8840   -0.2657   -8.0471 H         1 UNK         0.0769 
    129 H129       35.8895    0.5431   -6.8498 H         1 UNK         0.0769 
    130 H130       32.8990    0.0020   -7.1751 H         1 UNK         0.2981 
    131 H131       32.1438    0.8695   -4.5656 H         1 UNK         0.0541 
    132 H132       29.9346    1.2586   -3.7653 H         1 UNK         0.3459 
    133 H133       28.8677    2.2496   -4.7506 H         1 UNK         0.3459 
    134 H134       31.0453   -1.3314   -6.3880 H         1 UNK         0.0612 
    135 H135       30.4730   -1.0777   -4.7639 H         1 UNK         0.0612 
    136 H136       33.4214   -4.1065   -5.4048 H         1 UNK         0.0624 
    137 H137       32.7544   -3.2108   -6.7489 H         1 UNK         0.0624 
@<TRIPOS>BOND
     1    1    2 1    
     2    1   72 1    
     3    1   73 1    
     4    1   74 1    
     5    2    3 2    
     6    2    4 am   BACKBONE|DICT|INTERRES
     7    4    5 1    
     8    4   75 1    
     9    5    6 1    
    10    5   35 1    
    11    5   76 1    
    12    6    7 1    
    13    6   77 1    
    14    6   78 1    
    15    7    8 1    
    16    8    9 1    
    17    8   79 1    
    18    8   80 1    
    19    9   10 ar   
    20    9   14 ar   
    21   10   11 ar   
    22   10   81 1    
    23   11   12 ar   
    24   11   71 1    
    25   12   13 ar   
    26   12   82 1    
    27   13   14 ar   
    28   13   15 1    
    29   14   83 1    
    30   15   16 1    
    31   15   84 1    
    32   15   85 1    
    33   16   17 1    
    34   17   18 1    
    35   17   86 1    
    36   17   87 1    
    37   18   19 1    
    38   18   37 1    
    39   18   88 1    
    40   19   20 am   BACKBONE|DICT|INTERRES
    41   19   89 1    
    42   20   21 2    
    43   20   22 1    
    44   22   23 1    
    45   22   24 1    
    46   22   90 1    
    47   23   91 1    
    48   23   92 1    
    49   23   93 1    
    50   24   25 am   BACKBONE|DICT|INTERRES
    51   24   94 1    
    52   25   26 2    
    53   25   27 1    
    54   27   28 1    
    55   27   29 1    
    56   27   95 1    
    57   28   96 1    
    58   28   97 1    
    59   28   98 1    
    60   29   30 am   BACKBONE|DICT|INTERRES
    61   29   99 1    
    62   30   31 2    
    63   30   32 1    
    64   32   33 1    
    65   32   34 1    
    66   32  100 1    
    67   33  101 1    
    68   33  102 1    
    69   33  103 1    
    70   34   35 am   BACKBONE|DICT|INTERRES
    71   34  104 1    
    72   35   36 2    
    73   37   38 2    
    74   37   39 am   BACKBONE|DICT|INTERRES
    75   39   40 1    
    76   39  105 1    
    77   40   41 1    
    78   40   42 1    
    79   40  106 1    
    80   41  107 1    
    81   41  108 1    
    82   41  109 1    
    83   42   43 2    
    84   42   44 am   BACKBONE|DICT|INTERRES
    85   44   45 1    
    86   44  110 1    
    87   45   46 1    
    88   45   47 1    
    89   45  111 1    
    90   46  112 1    
    91   46  113 1    
    92   46  114 1    
    93   47   48 2    
    94   47   49 am   BACKBONE|DICT|INTERRES
    95   49   50 1    
    96   49  115 1    
    97   50   51 1    
    98   50   52 1    
    99   50  116 1    
   100   51  117 1    
   101   51  118 1    
   102   51  119 1    
   103   52   53 2    
   104   52   54 am   BACKBONE|DICT|INTERRES
   105   54   55 1    
   106   54  120 1    
   107   55   56 1    
   108   55   57 1    
   109   55  121 1    
   110   56  122 1    
   111   56  123 1    
   112   56  124 1    
   113   57   58 2    
   114   57   59 am   BACKBONE|DICT|INTERRES
   115   59   60 1    
   116   59  125 1    
   117   60   61 1    
   118   60   62 1    
   119   60  126 1    
   120   61  127 1    
   121   61  128 1    
   122   61  129 1    
   123   62   63 2    
   124   62   64 am   BACKBONE|DICT|INTERRES
   125   64   65 1    
   126   64  130 1    
   127   65   66 1    
   128   65   69 1    
   129   65  131 1    
   130   66   67 am   BACKBONE|DICT|INTERRES
   131   66   68 2    
   132   67  132 1    
   133   67  133 1    
   134   69   70 1    
   135   69  134 1    
   136   69  135 1    
   137   70   71 1    
   138   71  136 1    
   139   71  137 1    
@<TRIPOS>SUBSTRUCTURE
     1 UNK         1 GROUP             0       ****    0 ROOT    
