@<TRIPOS>MOLECULE
3R137
137   139    1
SMALL
USER_CHARGES


@<TRIPOS>ATOM
      1 CA         22.9698   -4.3385    0.0068 C.3       0 UNK        -0.2020 
      2 C          24.3908   -3.7969    0.0468 C.2       0 UNK         0.4855 
      3 O          24.6162   -2.7094    0.5792 O.2       0 UNK        -0.5197 
      4 N          25.3524   -4.5460   -0.5094 N.am      1 UNK        -0.4892 
      5 CA         26.7508   -4.1256   -0.6530 C.3       1 UNK         0.0835 
      6 C6         27.6728   -5.3282   -0.9770 C.3       12 UNK        -0.0855 
      7 S7         29.4069   -5.0264   -0.4852 S.3       12 UNK        -0.2931 
      8 C8         30.3364   -5.6009   -1.9432 C.3       12 UNK         0.0378 
      9 C9         30.3372   -4.5853   -3.0785 C.ar      12 UNK        -0.0802 
     10 C10        31.2692   -3.5409   -3.0896 C.ar      12 UNK        -0.0944 
     11 C11        31.3155   -2.6299   -4.1517 C.ar      12 UNK        -0.0787 
     12 C12        30.4021   -2.7725   -5.2021 C.ar      12 UNK        -0.0862 
     13 C13        29.4706   -3.8124   -5.2091 C.ar      12 UNK        -0.0733 
     14 C14        29.4444   -4.7188   -4.1458 C.ar      12 UNK        -0.0832 
     15 C15        28.5129   -3.9654   -6.3800 C.3       12 UNK         0.0240 
     16 S16        26.8008   -3.6589   -5.8637 S.3       12 UNK        -0.2522 
     17 C17        26.0963   -2.8455   -7.3393 C.3       12 UNK        -0.0967 
     18 CA         25.9044   -1.3120   -7.1607 C.3       5 UNK         0.0660 
     19 N          25.1794   -0.9820   -5.9207 N.am      5 UNK        -0.4015 
     20 C          23.8568   -1.1833   -5.7946 C.2       4 UNK         0.4946 
     21 O          23.1142   -1.3892   -6.7570 O.2       4 UNK        -0.5353 
     22 CA         23.2294   -1.2275   -4.3879 C.3       4 UNK         0.0277 
     23 CB         22.8651   -2.6770   -4.0210 C.3       4 UNK        -0.1981 
     24 N          24.0912   -0.6898   -3.3379 N.am      4 UNK        -0.4209 
     25 C          24.0560    0.5801   -2.9086 C.2       3 UNK         0.4942 
     26 O          23.2730    1.4253   -3.3446 O.2       3 UNK        -0.5208 
     27 CA         25.0620    0.9976   -1.8147 C.3       3 UNK         0.0250 
     28 CB         24.3722    1.0330   -0.4412 C.3       3 UNK        -0.1990 
     29 N          26.2630    0.1602   -1.7222 N.am      3 UNK        -0.4232 
     30 C          27.1083   -0.0879   -2.7317 C.2       2 UNK         0.4993 
     31 O          26.9512    0.3578   -3.8660 O.2       2 UNK        -0.5286 
     32 CA         28.2607   -1.0686   -2.4635 C.3       2 UNK         0.0209 
     33 CB         29.4901   -0.3268   -1.9152 C.3       2 UNK        -0.1931 
     34 N          27.9127   -2.1651   -1.5541 N.am      2 UNK        -0.4546 
     35 C          26.8784   -3.0044   -1.7050 C.2       1 UNK         0.5154 
     36 O          26.0471   -2.9137   -2.6129 O.2       1 UNK        -0.5181 
     37 C          27.2060   -0.5180   -7.4079 C.2       5 UNK         0.5014 
     38 O          27.8357   -0.7358   -8.4471 O.2       5 UNK        -0.5248 
     39 N          27.5921    0.4128   -6.5218 N.am      6 UNK        -0.4434 
     40 CA         28.7946    1.2484   -6.6543 C.3       6 UNK         0.0363 
     41 CB         28.9555    2.1494   -5.4210 C.3       6 UNK        -0.1936 
     42 C          28.8516    2.1018   -7.9293 C.2       6 UNK         0.5081 
     43 O          29.9472    2.3545   -8.4270 O.2       6 UNK        -0.5248 
     44 N          27.6853    2.4974   -8.4560 N.am      7 UNK        -0.4718 
     45 CA         27.5524    3.2165   -9.7257 C.3       7 UNK         0.0273 
     46 CB         26.1108    3.7308   -9.8670 C.3       7 UNK        -0.1935 
     47 C          27.9461    2.3722  -10.9528 C.2       7 UNK         0.5018 
     48 O          28.3815    2.9418  -11.9539 O.2       7 UNK        -0.5186 
     49 N          27.7922    1.0438  -10.8569 N.am      8 UNK        -0.4240 
     50 CA         28.1934    0.0886  -11.8896 C.3       8 UNK         0.0235 
     51 CB         27.2351   -1.1146  -11.8809 C.3       8 UNK        -0.2000 
     52 C          29.6441   -0.3692  -11.6836 C.2       8 UNK         0.4941 
     53 O          30.3959   -0.4484  -12.6555 O.2       8 UNK        -0.5273 
     54 N          30.0119   -0.6601  -10.4272 N.am      9 UNK        -0.4262 
     55 CA         31.3461   -1.1317  -10.0422 C.3       9 UNK         0.0264 
     56 CB         31.2687   -1.7376   -8.6358 C.3       9 UNK        -0.1955 
     57 C          32.4380   -0.0475  -10.0861 C.2       9 UNK         0.5031 
     58 O          33.6139   -0.3947  -10.2015 O.2       9 UNK        -0.5390 
     59 N          32.0376    1.2264   -9.9642 N.am      10 UNK        -0.4204 
     60 CA         32.8722    2.4310   -9.8823 C.3       10 UNK         0.0237 
     61 CB         33.7499    2.6064  -11.1409 C.3       10 UNK        -0.1985 
     62 C          33.6687    2.5447   -8.5657 C.2       10 UNK         0.4970 
     63 O          34.6644    3.2698   -8.5265 O.2       10 UNK        -0.4914 
     64 N          33.2103    1.8627   -7.5055 N.am      11 UNK        -0.4285 
     65 CA         33.7650    1.9582   -6.1441 C.3       11 UNK         0.1007 
     66 C          33.2226    3.1570   -5.3109 C.2       11 UNK         0.5703 
     67 N          32.2858    3.9510   -5.8173 N.am      11 UNK        -0.7361 
     68 O          33.6797    3.3869   -4.1936 O.2       11 UNK        -0.4986 
     69 C69        33.6938    0.6065   -5.3824 C.3       12 UNK        -0.0947 
     70 S70        32.0128   -0.0555   -5.1322 S.3       12 UNK        -0.2240 
     71 C71        32.4086   -1.5593   -4.1709 C.3       12 UNK         0.0194 
     72 H72        22.9114   -5.2944   -0.5133 H         1 UNK         0.0906 
     73 H73        22.5930   -4.4787    1.0196 H         1 UNK         0.0906 
     74 H74        22.3156   -3.6338   -0.5058 H         1 UNK         0.0906 
     75 H75        25.1042   -5.4124   -0.9654 H         1 UNK         0.3140 
     76 H76        27.0514   -3.7119    0.3129 H         1 UNK         0.1085 
     77 H77        27.3452   -6.2082   -0.4208 H         1 UNK         0.0836 
     78 H78        27.6056   -5.6048   -2.0304 H         1 UNK         0.0836 
     79 H79        31.3655   -5.8001   -1.6402 H         1 UNK         0.0731 
     80 H80        29.9353   -6.5582   -2.2802 H         1 UNK         0.0731 
     81 H81        31.9763   -3.4516   -2.2759 H         1 UNK         0.1312 
     82 H82        30.4208   -2.0842   -6.0307 H         1 UNK         0.1406 
     83 H83        28.7296   -5.5301   -4.1579 H         1 UNK         0.1631 
     84 H84        28.7832   -3.2773   -7.1815 H         1 UNK         0.0717 
     85 H85        28.5913   -4.9711   -6.7950 H         1 UNK         0.0717 
     86 H86        26.6859   -3.0812   -8.2275 H         1 UNK         0.0934 
     87 H87        25.1245   -3.3065   -7.5220 H         1 UNK         0.0934 
     88 H88        25.2763   -0.9825   -7.9912 H         1 UNK         0.0739 
     89 H89        25.7365   -0.7992   -5.0939 H         1 UNK         0.3093 
     90 H90        22.3014   -0.6532   -4.4303 H         1 UNK         0.0818 
     91 H91        22.3832   -2.7312   -3.0448 H         1 UNK         0.0819 
     92 H92        22.1722   -3.1030   -4.7478 H         1 UNK         0.0819 
     93 H93        23.7460   -3.3201   -3.9968 H         1 UNK         0.0819 
     94 H94        24.7767   -1.3291   -2.9454 H         1 UNK         0.3041 
     95 H95        25.3940    2.0088   -2.0585 H         1 UNK         0.0784 
     96 H96        23.4867    1.6701   -0.4634 H         1 UNK         0.0793 
     97 H97        24.0508    0.0387   -0.1274 H         1 UNK         0.0793 
     98 H98        25.0350    1.4307    0.3275 H         1 UNK         0.0793 
     99 H99        26.4393   -0.2855   -0.8333 H         1 UNK         0.3024 
    100 H100       28.5262   -1.5197   -3.4218 H         1 UNK         0.1171 
    101 H101       30.3322   -1.0041   -1.7747 H         1 UNK         0.0786 
    102 H102       29.8205    0.4508   -2.6037 H         1 UNK         0.0786 
    103 H103       29.2812    0.1510   -0.9574 H         1 UNK         0.0786 
    104 H104       28.5603   -2.3411   -0.7989 H         1 UNK         0.2977 
    105 H105       27.0995    0.5046   -5.6352 H         1 UNK         0.3127 
    106 H106       29.6484    0.5728   -6.6936 H         1 UNK         0.0770 
    107 H107       29.7792    2.8515   -5.5465 H         1 UNK         0.0814 
    108 H108       28.0554    2.7325   -5.2238 H         1 UNK         0.0814 
    109 H109       29.1802    1.5619   -4.5335 H         1 UNK         0.0814 
    110 H110       26.8340    2.2537   -7.9707 H         1 UNK         0.2983 
    111 H111       28.2235    4.0781   -9.6959 H         1 UNK         0.0947 
    112 H112       25.9871    4.2946  -10.7929 H         1 UNK         0.0806 
    113 H113       25.8445    4.3975   -9.0467 H         1 UNK         0.0806 
    114 H114       25.3891    2.9131   -9.8850 H         1 UNK         0.0806 
    115 H115       27.4819    0.6524   -9.9755 H         1 UNK         0.3000 
    116 H116       28.1263    0.5622  -12.8718 H         1 UNK         0.0850 
    117 H117       27.5043   -1.8310  -12.6583 H         1 UNK         0.0810 
    118 H118       26.2079   -0.8027  -12.0704 H         1 UNK         0.0810 
    119 H119       27.2525   -1.6463  -10.9289 H         1 UNK         0.0810 
    120 H120       29.3082   -0.6180   -9.6941 H         1 UNK         0.3040 
    121 H121       31.6421   -1.9203  -10.7374 H         1 UNK         0.0766 
    122 H122       30.5745   -2.5767   -8.6048 H         1 UNK         0.0812 
    123 H123       30.9402   -0.9947   -7.9109 H         1 UNK         0.0812 
    124 H124       32.2414   -2.1082   -8.3084 H         1 UNK         0.0812 
    125 H125       31.0526    1.3968   -9.7839 H         1 UNK         0.3205 
    126 H126       32.1698    3.2655   -9.8662 H         1 UNK         0.0754 
    127 H127       34.2183    3.5912  -11.1565 H         1 UNK         0.0769 
    128 H128       33.1584    2.5166  -12.0521 H         1 UNK         0.0769 
    129 H129       34.5509    1.8682  -11.1853 H         1 UNK         0.0769 
    130 H130       32.3659    1.3196   -7.6030 H         1 UNK         0.2981 
    131 H131       34.8306    2.1707   -6.2473 H         1 UNK         0.0541 
    132 H132       31.9047    3.7744   -6.7328 H         1 UNK         0.3459 
    133 H133       31.9565    4.7319   -5.2726 H         1 UNK         0.3459 
    134 H134       34.1813    0.6920   -4.4095 H         1 UNK         0.0612 
    135 H135       34.2665   -0.1412   -5.9333 H         1 UNK         0.0612 
    136 H136       32.6511   -1.2548   -3.1517 H         1 UNK         0.0624 
    137 H137       33.3094   -2.0153   -4.5834 H         1 UNK         0.0624 
@<TRIPOS>BOND
     1    1    2 1    
     2    1   72 1    
     3    1   73 1    
     4    1   74 1    
     5    2    3 2    
     6    2    4 am   BACKBONE|DICT|INTERRES
     7    4    5 1    
     8    4   75 1    
     9    5    6 1    
    10    5   35 1    
    11    5   76 1    
    12    6    7 1    
    13    6   77 1    
    14    6   78 1    
    15    7    8 1    
    16    8    9 1    
    17    8   79 1    
    18    8   80 1    
    19    9   10 ar   
    20    9   14 ar   
    21   10   11 ar   
    22   10   81 1    
    23   11   12 ar   
    24   11   71 1    
    25   12   13 ar   
    26   12   82 1    
    27   13   14 ar   
    28   13   15 1    
    29   14   83 1    
    30   15   16 1    
    31   15   84 1    
    32   15   85 1    
    33   16   17 1    
    34   17   18 1    
    35   17   86 1    
    36   17   87 1    
    37   18   19 1    
    38   18   37 1    
    39   18   88 1    
    40   19   20 am   BACKBONE|DICT|INTERRES
    41   19   89 1    
    42   20   21 2    
    43   20   22 1    
    44   22   23 1    
    45   22   24 1    
    46   22   90 1    
    47   23   91 1    
    48   23   92 1    
    49   23   93 1    
    50   24   25 am   BACKBONE|DICT|INTERRES
    51   24   94 1    
    52   25   26 2    
    53   25   27 1    
    54   27   28 1    
    55   27   29 1    
    56   27   95 1    
    57   28   96 1    
    58   28   97 1    
    59   28   98 1    
    60   29   30 am   BACKBONE|DICT|INTERRES
    61   29   99 1    
    62   30   31 2    
    63   30   32 1    
    64   32   33 1    
    65   32   34 1    
    66   32  100 1    
    67   33  101 1    
    68   33  102 1    
    69   33  103 1    
    70   34   35 am   BACKBONE|DICT|INTERRES
    71   34  104 1    
    72   35   36 2    
    73   37   38 2    
    74   37   39 am   BACKBONE|DICT|INTERRES
    75   39   40 1    
    76   39  105 1    
    77   40   41 1    
    78   40   42 1    
    79   40  106 1    
    80   41  107 1    
    81   41  108 1    
    82   41  109 1    
    83   42   43 2    
    84   42   44 am   BACKBONE|DICT|INTERRES
    85   44   45 1    
    86   44  110 1    
    87   45   46 1    
    88   45   47 1    
    89   45  111 1    
    90   46  112 1    
    91   46  113 1    
    92   46  114 1    
    93   47   48 2    
    94   47   49 am   BACKBONE|DICT|INTERRES
    95   49   50 1    
    96   49  115 1    
    97   50   51 1    
    98   50   52 1    
    99   50  116 1    
   100   51  117 1    
   101   51  118 1    
   102   51  119 1    
   103   52   53 2    
   104   52   54 am   BACKBONE|DICT|INTERRES
   105   54   55 1    
   106   54  120 1    
   107   55   56 1    
   108   55   57 1    
   109   55  121 1    
   110   56  122 1    
   111   56  123 1    
   112   56  124 1    
   113   57   58 2    
   114   57   59 am   BACKBONE|DICT|INTERRES
   115   59   60 1    
   116   59  125 1    
   117   60   61 1    
   118   60   62 1    
   119   60  126 1    
   120   61  127 1    
   121   61  128 1    
   122   61  129 1    
   123   62   63 2    
   124   62   64 am   BACKBONE|DICT|INTERRES
   125   64   65 1    
   126   64  130 1    
   127   65   66 1    
   128   65   69 1    
   129   65  131 1    
   130   66   67 am   BACKBONE|DICT|INTERRES
   131   66   68 2    
   132   67  132 1    
   133   67  133 1    
   134   69   70 1    
   135   69  134 1    
   136   69  135 1    
   137   70   71 1    
   138   71  136 1    
   139   71  137 1    
@<TRIPOS>SUBSTRUCTURE
     1 UNK         1 GROUP             0       ****    0 ROOT    
