@<TRIPOS>MOLECULE
3R137
137   139    1
SMALL
USER_CHARGES


@<TRIPOS>ATOM
      1 CA         23.1932   -3.5400   -6.9503 C.3       0 UNK        -0.2020 
      2 C          24.3393   -3.7847   -5.9814 C.2       0 UNK         0.4855 
      3 O          24.5669   -2.9594   -5.0948 O.2       0 UNK        -0.5197 
      4 N          25.0209   -4.9302   -6.1282 N.am      1 UNK        -0.4892 
      5 CA         26.2230   -5.4381   -5.4346 C.3       1 UNK         0.0835 
      6 C6         27.5397   -4.7585   -5.9081 C.3       12 UNK        -0.0855 
      7 S7         27.9631   -3.1618   -5.1254 S.3       12 UNK        -0.2931 
      8 C8         29.2741   -3.6833   -3.9675 C.3       12 UNK         0.0378 
      9 C9         29.9249   -2.4712   -3.3253 C.ar      12 UNK        -0.0802 
     10 C10        31.1438   -1.9847   -3.8083 C.ar      12 UNK        -0.0944 
     11 C11        31.6805   -0.7961   -3.3059 C.ar      12 UNK        -0.0787 
     12 C12        30.9974   -0.1022   -2.3043 C.ar      12 UNK        -0.0862 
     13 C13        29.7792   -0.5820   -1.8145 C.ar      12 UNK        -0.0733 
     14 C14        29.2661   -1.7886   -2.2992 C.ar      12 UNK        -0.0832 
     15 C15        28.9630    0.2605   -0.8468 C.3       12 UNK         0.0240 
     16 S16        27.4607    0.9292   -1.6436 S.3       12 UNK        -0.2522 
     17 C17        28.1112    1.6853   -3.1802 C.3       12 UNK        -0.0967 
     18 CA         27.9303    0.7477   -4.4130 C.3       5 UNK         0.0660 
     19 N          26.5320    0.3920   -4.6584 N.am      5 UNK        -0.4015 
     20 C          25.5716    1.2116   -5.1064 C.2       4 UNK         0.4946 
     21 O          25.7604    2.3851   -5.4325 O.2       4 UNK        -0.5353 
     22 CA         24.1555    0.6234   -5.1960 C.3       4 UNK         0.0277 
     23 CB         23.9084    0.0282   -6.5889 C.3       4 UNK        -0.1981 
     24 N          23.9093   -0.4007   -4.1738 N.am      4 UNK        -0.4209 
     25 C          23.6536   -0.1161   -2.8881 C.2       3 UNK         0.4942 
     26 O          23.5802    1.0347   -2.4549 O.2       3 UNK        -0.5208 
     27 CA         23.4115   -1.2770   -1.9115 C.3       3 UNK         0.0250 
     28 CB         21.9019   -1.5564   -1.7779 C.3       3 UNK        -0.1990 
     29 N          24.1202   -2.5182   -2.2504 N.am      3 UNK        -0.4232 
     30 C          24.4783   -3.4327   -1.3315 C.2       2 UNK         0.4993 
     31 O          24.3320   -3.2586   -0.1202 O.2       2 UNK        -0.5286 
     32 CA         25.0680   -4.7776   -1.7975 C.3       2 UNK         0.0209 
     33 CB         24.1947   -5.9585   -1.3283 C.3       2 UNK        -0.1931 
     34 N          25.2489   -4.8484   -3.2447 N.am      2 UNK        -0.4546 
     35 C          26.1440   -5.5927   -3.8955 C.2       1 UNK         0.5154 
     36 O          26.8972   -6.3898   -3.3331 O.2       1 UNK        -0.5181 
     37 C          28.6006    1.2297   -5.7147 C.2       5 UNK         0.5014 
     38 O          28.5378    0.5088   -6.7131 O.2       5 UNK        -0.5248 
     39 N          29.1910    2.4331   -5.7118 N.am      6 UNK        -0.4434 
     40 CA         29.8969    3.0365   -6.8483 C.3       6 UNK         0.0363 
     41 CB         30.5763    4.3341   -6.3812 C.3       6 UNK        -0.1936 
     42 C          29.0341    3.2894   -8.1020 C.2       6 UNK         0.5081 
     43 O          29.5929    3.5403   -9.1700 O.2       6 UNK        -0.5248 
     44 N          27.7009    3.2180   -7.9735 N.am      7 UNK        -0.4718 
     45 CA         26.7698    3.2560   -9.1029 C.3       7 UNK         0.0273 
     46 CB         25.3783    3.6735   -8.6006 C.3       7 UNK        -0.1935 
     47 C          26.6935    1.9211   -9.8712 C.2       7 UNK         0.5018 
     48 O          26.1952    1.9239  -10.9979 O.2       7 UNK        -0.5186 
     49 N          27.1636    0.8178   -9.2692 N.am      8 UNK        -0.4240 
     50 CA         27.1596   -0.5218   -9.8617 C.3       8 UNK         0.0235 
     51 CB         26.2664   -1.4552   -9.0263 C.3       8 UNK        -0.2000 
     52 C          28.5767   -1.0974   -9.9752 C.2       8 UNK         0.4941 
     53 O          28.9382   -1.5942  -11.0432 O.2       8 UNK        -0.5273 
     54 N          29.3444   -1.0481   -8.8809 N.am      9 UNK        -0.4262 
     55 CA         30.6921   -1.6033   -8.7904 C.3       9 UNK         0.0264 
     56 CB         30.9374   -2.0628   -7.3459 C.3       9 UNK        -0.1955 
     57 C          31.7491   -0.5727   -9.2055 C.2       9 UNK         0.5031 
     58 O          31.5710    0.6271   -8.9851 O.2       9 UNK        -0.5390 
     59 N          32.8677   -1.0677   -9.7473 N.am      10 UNK        -0.4204 
     60 CA         34.0536   -0.2785  -10.0793 C.3       10 UNK         0.0237 
     61 CB         34.8051   -0.9641  -11.2365 C.3       10 UNK        -0.1985 
     62 C          34.9295   -0.0984   -8.8267 C.2       10 UNK         0.4970 
     63 O          35.9860   -0.7239   -8.7189 O.2       10 UNK        -0.4914 
     64 N          34.4493    0.7218   -7.8844 N.am      11 UNK        -0.4285 
     65 CA         35.1042    0.9979   -6.5934 C.3       11 UNK         0.1007 
     66 C          36.4498    1.7766   -6.6871 C.2       11 UNK         0.5703 
     67 N          36.7673    2.4284   -7.7998 N.am      11 UNK        -0.7361 
     68 O          37.2211    1.7847   -5.7305 O.2       11 UNK        -0.4986 
     69 C69        34.1481    1.6982   -5.5922 C.3       12 UNK        -0.0947 
     70 S70        32.5768    0.8121   -5.3369 S.3       12 UNK        -0.2240 
     71 C71        32.9595   -0.2191   -3.8896 C.3       12 UNK         0.0194 
     72 H72        23.5015   -2.8424   -7.7279 H         1 UNK         0.0906 
     73 H73        22.8636   -4.4613   -7.4300 H         1 UNK         0.0906 
     74 H74        22.3399   -3.1114   -6.4254 H         1 UNK         0.0906 
     75 H75        24.7002   -5.5529   -6.8573 H         1 UNK         0.3140 
     76 H76        26.2847   -6.4693   -5.7874 H         1 UNK         0.1085 
     77 H77        28.3713   -5.4494   -5.7598 H         1 UNK         0.0836 
     78 H78        27.5015   -4.5966   -6.9864 H         1 UNK         0.0836 
     79 H79        30.0215   -4.2738   -4.4997 H         1 UNK         0.0731 
     80 H80        28.8528   -4.3308   -3.1974 H         1 UNK         0.0731 
     81 H81        31.6533   -2.5045   -4.6075 H         1 UNK         0.1312 
     82 H82        31.3901    0.8394   -1.9451 H         1 UNK         0.1406 
     83 H83        28.3073   -2.1443   -1.9464 H         1 UNK         0.1631 
     84 H84        29.5558    1.0882   -0.4545 H         1 UNK         0.0717 
     85 H85        28.6731   -0.3467    0.0118 H         1 UNK         0.0717 
     86 H86        27.5865    2.6298   -3.3346 H         1 UNK         0.0934 
     87 H87        29.1607    1.9400   -3.0258 H         1 UNK         0.0934 
     88 H88        28.4310   -0.1925   -4.2014 H         1 UNK         0.0739 
     89 H89        26.2899   -0.5697   -4.4702 H         1 UNK         0.3093 
     90 H90        23.4479    1.4426   -5.0496 H         1 UNK         0.0818 
     91 H91        22.8869   -0.3381   -6.6898 H         1 UNK         0.0819 
     92 H92        24.0663    0.7715   -7.3707 H         1 UNK         0.0819 
     93 H93        24.5857   -0.8008   -6.7857 H         1 UNK         0.0819 
     94 H94        23.9786   -1.3664   -4.4847 H         1 UNK         0.3041 
     95 H95        23.7774   -0.9225   -0.9449 H         1 UNK         0.0784 
     96 H96        21.3525   -0.6441   -1.5407 H         1 UNK         0.0793 
     97 H97        21.4857   -1.9588   -2.7022 H         1 UNK         0.0793 
     98 H98        21.6974   -2.2700   -0.9796 H         1 UNK         0.0793 
     99 H99        24.3173   -2.6790   -3.2316 H         1 UNK         0.3024 
    100 H100       26.0484   -4.8588   -1.3224 H         1 UNK         0.1171 
    101 H101       24.0552   -5.9419   -0.2466 H         1 UNK         0.0786 
    102 H102       24.6522   -6.9164   -1.5761 H         1 UNK         0.0786 
    103 H103       23.2055   -5.9306   -1.7867 H         1 UNK         0.0786 
    104 H104       24.7268   -4.1952   -3.8203 H         1 UNK         0.2977 
    105 H105       29.1664    2.9800   -4.8645 H         1 UNK         0.3127 
    106 H106       30.6782    2.3364   -7.1487 H         1 UNK         0.0770 
    107 H107       29.8482    5.0696   -6.0370 H         1 UNK         0.0814 
    108 H108       31.1437    4.7917   -7.1928 H         1 UNK         0.0814 
    109 H109       31.2780    4.1437   -5.5687 H         1 UNK         0.0814 
    110 H110       27.3056    3.0154   -7.0627 H         1 UNK         0.2983 
    111 H111       27.1111    4.0154   -9.8101 H         1 UNK         0.0947 
    112 H112       24.6781    3.7744   -9.4309 H         1 UNK         0.0806 
    113 H113       25.4123    4.6348   -8.0877 H         1 UNK         0.0806 
    114 H114       24.9599    2.9409   -7.9115 H         1 UNK         0.0806 
    115 H115       27.5978    0.9054   -8.3542 H         1 UNK         0.3000 
    116 H116       26.7500   -0.4904  -10.8735 H         1 UNK         0.0850 
    117 H117       26.5846   -1.4963   -7.9831 H         1 UNK         0.0810 
    118 H118       25.2278   -1.1275   -9.0548 H         1 UNK         0.0810 
    119 H119       26.2921   -2.4743   -9.4145 H         1 UNK         0.0810 
    120 H120       29.0113   -0.5538   -8.0538 H         1 UNK         0.3040 
    121 H121       30.7714   -2.4739   -9.4453 H         1 UNK         0.0766 
    122 H122       30.7866   -1.2464   -6.6387 H         1 UNK         0.0812 
    123 H123       31.9551   -2.4310   -7.2109 H         1 UNK         0.0812 
    124 H124       30.2602   -2.8706   -7.0699 H         1 UNK         0.0812 
    125 H125       32.9526   -2.0686   -9.8555 H         1 UNK         0.3205 
    126 H126       33.7505    0.7135  -10.4221 H         1 UNK         0.0754 
    127 H127       35.6983   -0.4002  -11.5092 H         1 UNK         0.0769 
    128 H128       34.1812   -1.0307  -12.1281 H         1 UNK         0.0769 
    129 H129       35.1238   -1.9741  -10.9750 H         1 UNK         0.0769 
    130 H130       33.5389    1.1414   -8.0279 H         1 UNK         0.2981 
    131 H131       35.3584    0.0268   -6.1643 H         1 UNK         0.0541 
    132 H132       36.1406    2.4306   -8.5880 H         1 UNK         0.3459 
    133 H133       37.6428    2.9252   -7.8482 H         1 UNK         0.3459 
    134 H134       33.9021    2.6998   -5.9497 H         1 UNK         0.0612 
    135 H135       34.6335    1.8363   -4.6244 H         1 UNK         0.0612 
    136 H136       33.4776    0.3759   -3.1361 H         1 UNK         0.0624 
    137 H137       33.6413   -1.0188   -4.1830 H         1 UNK         0.0624 
@<TRIPOS>BOND
     1    1    2 1    
     2    1   72 1    
     3    1   73 1    
     4    1   74 1    
     5    2    3 2    
     6    2    4 am   BACKBONE|DICT|INTERRES
     7    4    5 1    
     8    4   75 1    
     9    5    6 1    
    10    5   35 1    
    11    5   76 1    
    12    6    7 1    
    13    6   77 1    
    14    6   78 1    
    15    7    8 1    
    16    8    9 1    
    17    8   79 1    
    18    8   80 1    
    19    9   10 ar   
    20    9   14 ar   
    21   10   11 ar   
    22   10   81 1    
    23   11   12 ar   
    24   11   71 1    
    25   12   13 ar   
    26   12   82 1    
    27   13   14 ar   
    28   13   15 1    
    29   14   83 1    
    30   15   16 1    
    31   15   84 1    
    32   15   85 1    
    33   16   17 1    
    34   17   18 1    
    35   17   86 1    
    36   17   87 1    
    37   18   19 1    
    38   18   37 1    
    39   18   88 1    
    40   19   20 am   BACKBONE|DICT|INTERRES
    41   19   89 1    
    42   20   21 2    
    43   20   22 1    
    44   22   23 1    
    45   22   24 1    
    46   22   90 1    
    47   23   91 1    
    48   23   92 1    
    49   23   93 1    
    50   24   25 am   BACKBONE|DICT|INTERRES
    51   24   94 1    
    52   25   26 2    
    53   25   27 1    
    54   27   28 1    
    55   27   29 1    
    56   27   95 1    
    57   28   96 1    
    58   28   97 1    
    59   28   98 1    
    60   29   30 am   BACKBONE|DICT|INTERRES
    61   29   99 1    
    62   30   31 2    
    63   30   32 1    
    64   32   33 1    
    65   32   34 1    
    66   32  100 1    
    67   33  101 1    
    68   33  102 1    
    69   33  103 1    
    70   34   35 am   BACKBONE|DICT|INTERRES
    71   34  104 1    
    72   35   36 2    
    73   37   38 2    
    74   37   39 am   BACKBONE|DICT|INTERRES
    75   39   40 1    
    76   39  105 1    
    77   40   41 1    
    78   40   42 1    
    79   40  106 1    
    80   41  107 1    
    81   41  108 1    
    82   41  109 1    
    83   42   43 2    
    84   42   44 am   BACKBONE|DICT|INTERRES
    85   44   45 1    
    86   44  110 1    
    87   45   46 1    
    88   45   47 1    
    89   45  111 1    
    90   46  112 1    
    91   46  113 1    
    92   46  114 1    
    93   47   48 2    
    94   47   49 am   BACKBONE|DICT|INTERRES
    95   49   50 1    
    96   49  115 1    
    97   50   51 1    
    98   50   52 1    
    99   50  116 1    
   100   51  117 1    
   101   51  118 1    
   102   51  119 1    
   103   52   53 2    
   104   52   54 am   BACKBONE|DICT|INTERRES
   105   54   55 1    
   106   54  120 1    
   107   55   56 1    
   108   55   57 1    
   109   55  121 1    
   110   56  122 1    
   111   56  123 1    
   112   56  124 1    
   113   57   58 2    
   114   57   59 am   BACKBONE|DICT|INTERRES
   115   59   60 1    
   116   59  125 1    
   117   60   61 1    
   118   60   62 1    
   119   60  126 1    
   120   61  127 1    
   121   61  128 1    
   122   61  129 1    
   123   62   63 2    
   124   62   64 am   BACKBONE|DICT|INTERRES
   125   64   65 1    
   126   64  130 1    
   127   65   66 1    
   128   65   69 1    
   129   65  131 1    
   130   66   67 am   BACKBONE|DICT|INTERRES
   131   66   68 2    
   132   67  132 1    
   133   67  133 1    
   134   69   70 1    
   135   69  134 1    
   136   69  135 1    
   137   70   71 1    
   138   71  136 1    
   139   71  137 1    
@<TRIPOS>SUBSTRUCTURE
     1 UNK         1 GROUP             0       ****    0 ROOT    
