@<TRIPOS>MOLECULE
3R137
137   139    1
SMALL
USER_CHARGES


@<TRIPOS>ATOM
      1 CA         24.7003   -5.0585    3.2638 C.3       0 UNK        -0.2020 
      2 C          26.0543   -4.5285    2.8158 C.2       0 UNK         0.4855 
      3 O          27.0651   -4.8095    3.4603 O.2       0 UNK        -0.5197 
      4 N          26.0810   -3.7630    1.7206 N.am      1 UNK        -0.4892 
      5 CA         27.2644   -3.1084    1.1624 C.3       1 UNK         0.0835 
      6 C6         28.2340   -4.1001    0.4553 C.3       12 UNK        -0.0855 
      7 S7         29.9799   -3.5917    0.6292 S.3       12 UNK        -0.2931 
      8 C8         30.7355   -4.2503   -0.8911 C.3       12 UNK         0.0378 
      9 C9         30.3918   -3.3866   -2.0932 C.ar      12 UNK        -0.0802 
     10 C10        31.0936   -2.1990   -2.3270 C.ar      12 UNK        -0.0944 
     11 C11        30.7535   -1.3717   -3.4012 C.ar      12 UNK        -0.0787 
     12 C12        29.6906   -1.7412   -4.2297 C.ar      12 UNK        -0.0862 
     13 C13        28.9963   -2.9345   -4.0213 C.ar      12 UNK        -0.0733 
     14 C14        29.3604   -3.7622   -2.9581 C.ar      12 UNK        -0.0832 
     15 C15        27.8040   -3.2891   -4.8923 C.3       12 UNK         0.0240 
     16 S16        28.2373   -4.2022   -6.4046 S.3       12 UNK        -0.2522 
     17 C17        28.9773   -2.9064   -7.4632 C.3       12 UNK        -0.0967 
     18 CA         28.0152   -1.8270   -8.0638 C.3       5 UNK         0.0660 
     19 N          26.5973   -2.0106   -7.7277 N.am      5 UNK        -0.4015 
     20 C          25.5805   -1.2855   -8.2136 C.2       4 UNK         0.4946 
     21 O          25.7155   -0.4140   -9.0722 O.2       4 UNK        -0.5353 
     22 CA         24.1891   -1.5198   -7.5952 C.3       4 UNK         0.0277 
     23 CB         23.4440   -2.6208   -8.3659 C.3       4 UNK        -0.1981 
     24 N          24.1766   -1.8342   -6.1565 N.am      4 UNK        -0.4209 
     25 C          24.7756   -1.1293   -5.1829 C.2       3 UNK         0.4942 
     26 O          25.5077   -0.1657   -5.4124 O.2       3 UNK        -0.5208 
     27 CA         24.5451   -1.5880   -3.7242 C.3       3 UNK         0.0250 
     28 CB         24.0696   -3.0509   -3.6013 C.3       3 UNK        -0.1990 
     29 N          25.7454   -1.4082   -2.8980 N.am      3 UNK        -0.4232 
     30 C          26.1113   -0.2653   -2.3003 C.2       2 UNK         0.4993 
     31 O          25.4413    0.7692   -2.3332 O.2       2 UNK        -0.5286 
     32 CA         27.4463   -0.2971   -1.5210 C.3       2 UNK         0.0209 
     33 CB         27.6934    0.9923   -0.7103 C.3       2 UNK        -0.1931 
     34 N          27.6268   -1.4753   -0.6555 N.am      2 UNK        -0.4546 
     35 C          26.7909   -1.9212    0.2956 C.2       1 UNK         0.5154 
     36 O          25.6799   -1.4299    0.5155 O.2       1 UNK        -0.5181 
     37 C          28.5374   -0.4053   -7.7574 C.2       5 UNK         0.5014 
     38 O          29.4274    0.0572   -8.4699 O.2       5 UNK        -0.5248 
     39 N          27.9998    0.2632   -6.7246 N.am      6 UNK        -0.4434 
     40 CA         28.3878    1.6243   -6.3477 C.3       6 UNK         0.0363 
     41 CB         28.1076    1.8638   -4.8556 C.3       6 UNK        -0.1936 
     42 C          27.6737    2.6709   -7.2117 C.2       6 UNK         0.5081 
     43 O          28.2795    3.6898   -7.5399 O.2       6 UNK        -0.5248 
     44 N          26.4242    2.3866   -7.6084 N.am      7 UNK        -0.4718 
     45 CA         25.6560    3.1955   -8.5604 C.3       7 UNK         0.0273 
     46 CB         24.1864    2.7449   -8.5597 C.3       7 UNK        -0.1935 
     47 C          26.2530    3.1362   -9.9774 C.2       7 UNK         0.5018 
     48 O          26.3217    4.1636  -10.6524 O.2       7 UNK        -0.5186 
     49 N          26.7148    1.9436  -10.3790 N.am      8 UNK        -0.4240 
     50 CA         27.4646    1.7041  -11.6149 C.3       8 UNK         0.0235 
     51 CB         27.4571    0.1948  -11.9106 C.3       8 UNK        -0.2000 
     52 C          28.9154    2.2240  -11.5693 C.2       8 UNK         0.4941 
     53 O          29.5336    2.3454  -12.6274 O.2       8 UNK        -0.5273 
     54 N          29.4362    2.4876  -10.3598 N.am      9 UNK        -0.4262 
     55 CA         30.8189    2.8638  -10.0338 C.3       9 UNK         0.0264 
     56 CB         31.1639    4.2559  -10.6030 C.3       9 UNK        -0.1955 
     57 C          31.8434    1.7783  -10.4256 C.2       9 UNK         0.5031 
     58 O          32.9693    2.0964  -10.8129 O.2       9 UNK        -0.5390 
     59 N          31.4329    0.5096  -10.3091 N.am      10 UNK        -0.4204 
     60 CA         32.2256   -0.6729  -10.6417 C.3       10 UNK         0.0237 
     61 CB         31.2761   -1.8510  -10.9140 C.3       10 UNK        -0.1985 
     62 C          33.2319   -1.0336   -9.5387 C.2       10 UNK         0.4970 
     63 O          34.2908   -1.5794   -9.8506 O.2       10 UNK        -0.4914 
     64 N          32.8927   -0.7229   -8.2804 N.am      11 UNK        -0.4285 
     65 CA         33.7571   -0.9255   -7.1070 C.3       11 UNK         0.1007 
     66 C          34.8906    0.1306   -6.9358 C.2       11 UNK         0.5703 
     67 N          34.9686    1.1695   -7.7603 N.am      11 UNK        -0.7361 
     68 O          35.7283   -0.0064   -6.0473 O.2       11 UNK        -0.4986 
     69 C69        32.9238   -1.1301   -5.8146 C.3       12 UNK        -0.0947 
     70 S70        31.8587    0.2877   -5.3863 S.3       12 UNK        -0.2240 
     71 C71        31.5093   -0.0641   -3.6291 C.3       12 UNK         0.0194 
     72 H72        24.7110   -6.1479    3.2811 H         1 UNK         0.0906 
     73 H73        24.4721   -4.7039    4.2686 H         1 UNK         0.0906 
     74 H74        23.8968   -4.7383    2.6007 H         1 UNK         0.0906 
     75 H75        25.2168   -3.4865    1.2696 H         1 UNK         0.3140 
     76 H76        27.7870   -2.6532    2.0072 H         1 UNK         0.1085 
     77 H77        28.1630   -5.0901    0.9081 H         1 UNK         0.0836 
     78 H78        27.9597   -4.2474   -0.5892 H         1 UNK         0.0836 
     79 H79        31.8187   -4.2804   -0.7632 H         1 UNK         0.0731 
     80 H80        30.4180   -5.2830   -1.0447 H         1 UNK         0.0731 
     81 H81        31.8943   -1.9123   -1.6586 H         1 UNK         0.1312 
     82 H82        29.4031   -1.0891   -5.0369 H         1 UNK         0.1406 
     83 H83        28.8213   -4.6844   -2.7876 H         1 UNK         0.1631 
     84 H84        27.2757   -2.3764   -5.1537 H         1 UNK         0.0717 
     85 H85        27.1023   -3.8974   -4.3212 H         1 UNK         0.0717 
     86 H86        29.8186   -2.4710   -6.9205 H         1 UNK         0.0934 
     87 H87        29.4534   -3.4345   -8.2907 H         1 UNK         0.0934 
     88 H88        28.0646   -1.9243   -9.1505 H         1 UNK         0.0739 
     89 H89        26.3969   -2.7401   -7.0598 H         1 UNK         0.3093 
     90 H90        23.6324   -0.5884   -7.7161 H         1 UNK         0.0818 
     91 H91        22.4088   -2.7076   -8.0353 H         1 UNK         0.0819 
     92 H92        23.4211   -2.4024   -9.4348 H         1 UNK         0.0819 
     93 H93        23.9198   -3.5946   -8.2426 H         1 UNK         0.0819 
     94 H94        23.6035   -2.6187   -5.8808 H         1 UNK         0.3041 
     95 H95        23.7528   -0.9523   -3.3233 H         1 UNK         0.0784 
     96 H96        23.0840   -3.1887   -4.0478 H         1 UNK         0.0793 
     97 H97        24.7530   -3.7514   -4.0813 H         1 UNK         0.0793 
     98 H98        23.9774   -3.3452   -2.5553 H         1 UNK         0.0793 
     99 H99        26.3508   -2.2076   -2.7942 H         1 UNK         0.3024 
    100 H100       28.2274   -0.3510   -2.2787 H         1 UNK         0.1171 
    101 H101       27.6721    1.8718   -1.3553 H         1 UNK         0.0786 
    102 H102       28.6689    0.9741   -0.2243 H         1 UNK         0.0786 
    103 H103       26.9358    1.1340    0.0613 H         1 UNK         0.0786 
    104 H104       28.5124   -1.9570   -0.7548 H         1 UNK         0.2977 
    105 H105       27.2015   -0.1248   -6.2269 H         1 UNK         0.3127 
    106 H106       29.4617    1.7426   -6.5068 H         1 UNK         0.0770 
    107 H107       27.0435    1.8081   -4.6245 H         1 UNK         0.0814 
    108 H108       28.4521    2.8531   -4.5520 H         1 UNK         0.0814 
    109 H109       28.6265    1.1379   -4.2322 H         1 UNK         0.0814 
    110 H110       26.0030    1.5232   -7.2929 H         1 UNK         0.2983 
    111 H111       25.6944    4.2354   -8.2279 H         1 UNK         0.0947 
    112 H112       23.5893    3.3700   -9.2249 H         1 UNK         0.0806 
    113 H113       23.7483    2.8207   -7.5644 H         1 UNK         0.0806 
    114 H114       24.0755    1.7144   -8.8977 H         1 UNK         0.0806 
    115 H115       26.5237    1.1316   -9.7949 H         1 UNK         0.3000 
    116 H116       26.9554    2.2198  -12.4318 H         1 UNK         0.0850 
    117 H117       27.9639   -0.0233  -12.8516 H         1 UNK         0.0810 
    118 H118       26.4399   -0.1889  -11.9930 H         1 UNK         0.0810 
    119 H119       27.9648   -0.3701  -11.1280 H         1 UNK         0.0810 
    120 H120       28.8345    2.3444   -9.5604 H         1 UNK         0.3040 
    121 H121       30.8599    2.9347   -8.9457 H         1 UNK         0.0766 
    122 H122       32.1364    4.5949  -10.2440 H         1 UNK         0.0812 
    123 H123       30.4290    5.0008  -10.2975 H         1 UNK         0.0812 
    124 H124       31.2044    4.2500  -11.6926 H         1 UNK         0.0812 
    125 H125       30.5307    0.3454   -9.8635 H         1 UNK         0.3205 
    126 H126       32.7892   -0.4688  -11.5546 H         1 UNK         0.0754 
    127 H127       31.8337   -2.7462  -11.1927 H         1 UNK         0.0769 
    128 H128       30.5925   -1.6267  -11.7332 H         1 UNK         0.0769 
    129 H129       30.6776   -2.0978  -10.0369 H         1 UNK         0.0769 
    130 H130       32.0079   -0.2679   -8.1058 H         1 UNK         0.2981 
    131 H131       34.2871   -1.8663   -7.2671 H         1 UNK         0.0541 
    132 H132       34.3037    1.2845   -8.5087 H         1 UNK         0.3459 
    133 H133       35.7124    1.8383   -7.6389 H         1 UNK         0.3459 
    134 H134       33.5791   -1.3519   -4.9704 H         1 UNK         0.0612 
    135 H135       32.2844   -2.0068   -5.9284 H         1 UNK         0.0612 
    136 H136       30.9185    0.7559   -3.2198 H         1 UNK         0.0624 
    137 H137       32.4542   -0.0672   -3.0835 H         1 UNK         0.0624 
@<TRIPOS>BOND
     1    1    2 1    
     2    1   72 1    
     3    1   73 1    
     4    1   74 1    
     5    2    3 2    
     6    2    4 am   BACKBONE|DICT|INTERRES
     7    4    5 1    
     8    4   75 1    
     9    5    6 1    
    10    5   35 1    
    11    5   76 1    
    12    6    7 1    
    13    6   77 1    
    14    6   78 1    
    15    7    8 1    
    16    8    9 1    
    17    8   79 1    
    18    8   80 1    
    19    9   10 ar   
    20    9   14 ar   
    21   10   11 ar   
    22   10   81 1    
    23   11   12 ar   
    24   11   71 1    
    25   12   13 ar   
    26   12   82 1    
    27   13   14 ar   
    28   13   15 1    
    29   14   83 1    
    30   15   16 1    
    31   15   84 1    
    32   15   85 1    
    33   16   17 1    
    34   17   18 1    
    35   17   86 1    
    36   17   87 1    
    37   18   19 1    
    38   18   37 1    
    39   18   88 1    
    40   19   20 am   BACKBONE|DICT|INTERRES
    41   19   89 1    
    42   20   21 2    
    43   20   22 1    
    44   22   23 1    
    45   22   24 1    
    46   22   90 1    
    47   23   91 1    
    48   23   92 1    
    49   23   93 1    
    50   24   25 am   BACKBONE|DICT|INTERRES
    51   24   94 1    
    52   25   26 2    
    53   25   27 1    
    54   27   28 1    
    55   27   29 1    
    56   27   95 1    
    57   28   96 1    
    58   28   97 1    
    59   28   98 1    
    60   29   30 am   BACKBONE|DICT|INTERRES
    61   29   99 1    
    62   30   31 2    
    63   30   32 1    
    64   32   33 1    
    65   32   34 1    
    66   32  100 1    
    67   33  101 1    
    68   33  102 1    
    69   33  103 1    
    70   34   35 am   BACKBONE|DICT|INTERRES
    71   34  104 1    
    72   35   36 2    
    73   37   38 2    
    74   37   39 am   BACKBONE|DICT|INTERRES
    75   39   40 1    
    76   39  105 1    
    77   40   41 1    
    78   40   42 1    
    79   40  106 1    
    80   41  107 1    
    81   41  108 1    
    82   41  109 1    
    83   42   43 2    
    84   42   44 am   BACKBONE|DICT|INTERRES
    85   44   45 1    
    86   44  110 1    
    87   45   46 1    
    88   45   47 1    
    89   45  111 1    
    90   46  112 1    
    91   46  113 1    
    92   46  114 1    
    93   47   48 2    
    94   47   49 am   BACKBONE|DICT|INTERRES
    95   49   50 1    
    96   49  115 1    
    97   50   51 1    
    98   50   52 1    
    99   50  116 1    
   100   51  117 1    
   101   51  118 1    
   102   51  119 1    
   103   52   53 2    
   104   52   54 am   BACKBONE|DICT|INTERRES
   105   54   55 1    
   106   54  120 1    
   107   55   56 1    
   108   55   57 1    
   109   55  121 1    
   110   56  122 1    
   111   56  123 1    
   112   56  124 1    
   113   57   58 2    
   114   57   59 am   BACKBONE|DICT|INTERRES
   115   59   60 1    
   116   59  125 1    
   117   60   61 1    
   118   60   62 1    
   119   60  126 1    
   120   61  127 1    
   121   61  128 1    
   122   61  129 1    
   123   62   63 2    
   124   62   64 am   BACKBONE|DICT|INTERRES
   125   64   65 1    
   126   64  130 1    
   127   65   66 1    
   128   65   69 1    
   129   65  131 1    
   130   66   67 am   BACKBONE|DICT|INTERRES
   131   66   68 2    
   132   67  132 1    
   133   67  133 1    
   134   69   70 1    
   135   69  134 1    
   136   69  135 1    
   137   70   71 1    
   138   71  136 1    
   139   71  137 1    
@<TRIPOS>SUBSTRUCTURE
     1 UNK         1 GROUP             0       ****    0 ROOT    
