@<TRIPOS>MOLECULE
3R137
137   139    1
SMALL
USER_CHARGES


@<TRIPOS>ATOM
      1 CA         27.1922   -1.0287    4.2620 C.3       0 UNK        -0.2020 
      2 C          26.8766   -0.4252    2.9015 C.2       0 UNK         0.4855 
      3 O          25.9586    0.3882    2.7900 O.2       0 UNK        -0.5197 
      4 N          27.6367   -0.8084    1.8688 N.am      1 UNK        -0.4892 
      5 CA         27.4397   -0.4018    0.4745 C.3       1 UNK         0.0835 
      6 C6         28.6949   -0.6614   -0.4034 C.3       12 UNK        -0.0855 
      7 S7         29.6001   -2.2154   -0.0517 S.3       12 UNK        -0.2931 
      8 C8         29.2542   -3.2241   -1.5338 C.3       12 UNK         0.0378 
      9 C9         29.9844   -2.8262   -2.8216 C.ar      12 UNK        -0.0802 
     10 C10        30.7224   -1.6422   -2.9612 C.ar      12 UNK        -0.0944 
     11 C11        31.2948   -1.2818   -4.1861 C.ar      12 UNK        -0.0787 
     12 C12        31.1431   -2.1418   -5.2825 C.ar      12 UNK        -0.0862 
     13 C13        30.4649   -3.3552   -5.1462 C.ar      12 UNK        -0.0733 
     14 C14        29.8845   -3.6844   -3.9194 C.ar      12 UNK        -0.0832 
     15 C15        30.3814   -4.3359   -6.3057 C.3       12 UNK         0.0240 
     16 S16        28.7115   -4.3991   -7.0264 S.3       12 UNK        -0.2522 
     17 C17        28.8860   -3.3818   -8.5339 C.3       12 UNK        -0.0967 
     18 CA         27.9756   -2.1309   -8.5693 C.3       5 UNK         0.0660 
     19 N          26.5851   -2.4345   -8.2280 N.am      5 UNK        -0.4015 
     20 C          25.5433   -1.6316   -8.4800 C.2       4 UNK         0.4946 
     21 O          25.6327   -0.5688   -9.0937 O.2       4 UNK        -0.5353 
     22 CA         24.1889   -2.0565   -7.8847 C.3       4 UNK         0.0277 
     23 CB         23.4660   -3.0345   -8.8241 C.3       4 UNK        -0.1981 
     24 N          24.3126   -2.6493   -6.5457 N.am      4 UNK        -0.4209 
     25 C          24.8080   -1.9999   -5.4834 C.2       3 UNK         0.4942 
     26 O          25.1954   -0.8297   -5.5255 O.2       3 UNK        -0.5208 
     27 CA         24.9810   -2.8128   -4.1916 C.3       3 UNK         0.0250 
     28 CB         26.3119   -3.5800   -4.2216 C.3       3 UNK        -0.1990 
     29 N          24.9709   -1.9302   -3.0243 N.am      3 UNK        -0.4232 
     30 C          23.8586   -1.4898   -2.4254 C.2       2 UNK         0.4993 
     31 O          22.7289   -1.8706   -2.7396 O.2       2 UNK        -0.5286 
     32 CA         24.0080   -0.4258   -1.3188 C.3       2 UNK         0.0209 
     33 CB         23.0421   -0.6783   -0.1399 C.3       2 UNK        -0.1931 
     34 N          25.3764   -0.1878   -0.8273 N.am      2 UNK        -0.4546 
     35 C          26.1513   -1.0201   -0.1133 C.2       1 UNK         0.5154 
     36 O          25.8848   -2.2052    0.0990 O.2       1 UNK        -0.5181 
     37 C          28.5594   -0.9618   -7.7510 C.2       5 UNK         0.5014 
     38 O          29.4391   -0.2734   -8.2653 O.2       5 UNK        -0.5248 
     39 N          28.0531   -0.7184   -6.5322 N.am      6 UNK        -0.4434 
     40 CA         28.4259    0.4410   -5.7184 C.3       6 UNK         0.0363 
     41 CB         28.0126    0.2284   -4.2526 C.3       6 UNK        -0.1936 
     42 C          27.8023    1.7245   -6.2801 C.2       6 UNK         0.5081 
     43 O          28.4961    2.7334   -6.3964 O.2       6 UNK        -0.5248 
     44 N          26.5195    1.6470   -6.6647 N.am      7 UNK        -0.4718 
     45 CA         25.7800    2.7259   -7.3266 C.3       7 UNK         0.0273 
     46 CB         24.2972    2.3382   -7.4409 C.3       7 UNK        -0.1935 
     47 C          26.3635    3.0924   -8.7035 C.2       7 UNK         0.5018 
     48 O          26.4522    4.2771   -9.0274 O.2       7 UNK        -0.5186 
     49 N          26.7834    2.0755   -9.4695 N.am      8 UNK        -0.4240 
     50 CA         27.4758    2.2258  -10.7531 C.3       8 UNK         0.0235 
     51 CB         27.3860    0.8989  -11.5251 C.3       8 UNK        -0.2000 
     52 C          28.9495    2.6614  -10.6245 C.2       8 UNK         0.4941 
     53 O          29.5391    3.0438  -11.6360 O.2       8 UNK        -0.5273 
     54 N          29.5214    2.5735   -9.4128 N.am      9 UNK        -0.4262 
     55 CA         30.9304    2.8043   -9.0670 C.3       9 UNK         0.0264 
     56 CB         31.3121    4.2881   -9.2510 C.3       9 UNK        -0.1955 
     57 C          31.8892    1.8350   -9.7898 C.2       9 UNK         0.5031 
     58 O          32.9756    2.2330  -10.2149 O.2       9 UNK        -0.5390 
     59 N          31.4743    0.5678   -9.8965 N.am      10 UNK        -0.4204 
     60 CA         32.2152   -0.5407  -10.4957 C.3       10 UNK         0.0237 
     61 CB         31.2518   -1.3529  -11.3820 C.3       10 UNK        -0.1985 
     62 C          32.8513   -1.3833   -9.3775 C.2       10 UNK         0.4970 
     63 O          32.6151   -2.5896   -9.2922 O.2       10 UNK        -0.4914 
     64 N          33.6147   -0.7101   -8.5111 N.am      11 UNK        -0.4285 
     65 CA         34.2008   -1.2685   -7.2829 C.3       11 UNK         0.1007 
     66 C          35.6129   -1.8921   -7.4750 C.2       11 UNK         0.5703 
     67 N          36.2063   -1.8469   -8.6621 N.am      11 UNK        -0.7361 
     68 O          36.1771   -2.4405   -6.5311 O.2       11 UNK        -0.4986 
     69 C69        34.1847   -0.2297   -6.1270 C.3       12 UNK        -0.0947 
     70 S70        32.5730    0.6117   -5.9108 S.3       12 UNK        -0.2240 
     71 C71        32.0409    0.0541   -4.2550 C.3       12 UNK         0.0194 
     72 H72        27.4383   -0.2414    4.9741 H         1 UNK         0.0906 
     73 H73        26.3272   -1.5727    4.6404 H         1 UNK         0.0906 
     74 H74        28.0338   -1.7196    4.2162 H         1 UNK         0.0906 
     75 H75        28.3605   -1.5018    2.0033 H         1 UNK         0.3140 
     76 H76        27.2891    0.6805    0.4914 H         1 UNK         0.1085 
     77 H77        28.4481   -0.6027   -1.4639 H         1 UNK         0.0836 
     78 H78        29.4060    0.1492   -0.2357 H         1 UNK         0.0836 
     79 H79        29.5136   -4.2563   -1.2937 H         1 UNK         0.0731 
     80 H80        28.1788   -3.2142   -1.7162 H         1 UNK         0.0731 
     81 H81        30.8377   -0.9685   -2.1255 H         1 UNK         0.1312 
     82 H82        31.5460   -1.8800   -6.2478 H         1 UNK         0.1406 
     83 H83        29.3395   -4.6144   -3.8257 H         1 UNK         0.1631 
     84 H84        30.6330   -5.3325   -5.9400 H         1 UNK         0.0717 
     85 H85        31.1274   -4.1064   -7.0680 H         1 UNK         0.0717 
     86 H86        29.9294   -3.1045   -8.6946 H         1 UNK         0.0934 
     87 H87        28.6339   -4.0244   -9.3789 H         1 UNK         0.0934 
     88 H88        27.9696   -1.7866   -9.6052 H         1 UNK         0.0739 
     89 H89        26.4339   -3.2930   -7.7183 H         1 UNK         0.3093 
     90 H90        23.5774   -1.1562   -7.7925 H         1 UNK         0.0818 
     91 H91        22.4661   -3.2697   -8.4589 H         1 UNK         0.0819 
     92 H92        23.3512   -2.6040   -9.8201 H         1 UNK         0.0819 
     93 H93        24.0127   -3.9718   -8.9355 H         1 UNK         0.0819 
     94 H94        24.0175   -3.6100   -6.4413 H         1 UNK         0.3041 
     95 H95        24.1632   -3.5324   -4.1110 H         1 UNK         0.0784 
     96 H96        26.3330   -4.2983   -5.0418 H         1 UNK         0.0793 
     97 H97        27.1626   -2.9112   -4.3518 H         1 UNK         0.0793 
     98 H98        26.4643   -4.1436   -3.3011 H         1 UNK         0.0793 
     99 H99        25.8542   -1.5410   -2.7350 H         1 UNK         0.3024 
    100 H100       23.6997    0.5098   -1.7888 H         1 UNK         0.1171 
    101 H101       22.0040   -0.6862   -0.4746 H         1 UNK         0.0786 
    102 H102       23.1284    0.1003    0.6183 H         1 UNK         0.0786 
    103 H103       23.2336   -1.6376    0.3419 H         1 UNK         0.0786 
    104 H104       25.7097    0.7568   -0.9666 H         1 UNK         0.2977 
    105 H105       27.2807   -1.2760   -6.1975 H         1 UNK         0.3127 
    106 H106       29.5119    0.5436   -5.7544 H         1 UNK         0.0770 
    107 H107       26.9427    0.3640   -4.0971 H         1 UNK         0.0814 
    108 H108       28.5227    0.9432   -3.6063 H         1 UNK         0.0814 
    109 H109       28.2742   -0.7697   -3.9086 H         1 UNK         0.0814 
    110 H110       26.0177    0.7812   -6.4913 H         1 UNK         0.2983 
    111 H111       25.8532    3.6127   -6.6932 H         1 UNK         0.0947 
    112 H112       23.7174    3.1448   -7.8916 H         1 UNK         0.0806 
    113 H113       23.8640    2.1347   -6.4614 H         1 UNK         0.0806 
    114 H114       24.1561    1.4511   -8.0587 H         1 UNK         0.0806 
    115 H115       26.5787    1.1262   -9.1668 H         1 UNK         0.3000 
    116 H116       26.9586    2.9936  -11.3324 H         1 UNK         0.0850 
    117 H117       27.8198    0.9954  -12.5213 H         1 UNK         0.0810 
    118 H118       26.3512    0.5798  -11.6516 H         1 UNK         0.0810 
    119 H119       27.9240    0.1014  -11.0131 H         1 UNK         0.0810 
    120 H120       28.9459    2.2441   -8.6481 H         1 UNK         0.3040 
    121 H121       31.0168    2.5732   -8.0040 H         1 UNK         0.0766 
    122 H122       32.3137    4.4834   -8.8662 H         1 UNK         0.0812 
    123 H123       30.6258    4.9423   -8.7133 H         1 UNK         0.0812 
    124 H124       31.3049    4.5822  -10.3009 H         1 UNK         0.0812 
    125 H125       30.6232    0.3080   -9.3930 H         1 UNK         0.3205 
    126 H126       33.0224   -0.1636  -11.1268 H         1 UNK         0.0754 
    127 H127       31.7678   -2.1851  -11.8627 H         1 UNK         0.0769 
    128 H128       30.8282   -0.7335  -12.1729 H         1 UNK         0.0769 
    129 H129       30.4243   -1.7672  -10.8054 H         1 UNK         0.0769 
    130 H130       33.7581    0.2785   -8.6593 H         1 UNK         0.2981 
    131 H131       33.5840   -2.1088   -6.9658 H         1 UNK         0.0541 
    132 H132       35.7503   -1.4068   -9.4449 H         1 UNK         0.3459 
    133 H133       37.1189   -2.2596   -8.7744 H         1 UNK         0.3459 
    134 H134       34.9313    0.5453   -6.3092 H         1 UNK         0.0612 
    135 H135       34.4702   -0.7081   -5.1887 H         1 UNK         0.0612 
    136 H136       32.9043    0.0206   -3.5894 H         1 UNK         0.0624 
    137 H137       31.3830    0.8280   -3.8568 H         1 UNK         0.0624 
@<TRIPOS>BOND
     1    1    2 1    
     2    1   72 1    
     3    1   73 1    
     4    1   74 1    
     5    2    3 2    
     6    2    4 am   BACKBONE|DICT|INTERRES
     7    4    5 1    
     8    4   75 1    
     9    5    6 1    
    10    5   35 1    
    11    5   76 1    
    12    6    7 1    
    13    6   77 1    
    14    6   78 1    
    15    7    8 1    
    16    8    9 1    
    17    8   79 1    
    18    8   80 1    
    19    9   10 ar   
    20    9   14 ar   
    21   10   11 ar   
    22   10   81 1    
    23   11   12 ar   
    24   11   71 1    
    25   12   13 ar   
    26   12   82 1    
    27   13   14 ar   
    28   13   15 1    
    29   14   83 1    
    30   15   16 1    
    31   15   84 1    
    32   15   85 1    
    33   16   17 1    
    34   17   18 1    
    35   17   86 1    
    36   17   87 1    
    37   18   19 1    
    38   18   37 1    
    39   18   88 1    
    40   19   20 am   BACKBONE|DICT|INTERRES
    41   19   89 1    
    42   20   21 2    
    43   20   22 1    
    44   22   23 1    
    45   22   24 1    
    46   22   90 1    
    47   23   91 1    
    48   23   92 1    
    49   23   93 1    
    50   24   25 am   BACKBONE|DICT|INTERRES
    51   24   94 1    
    52   25   26 2    
    53   25   27 1    
    54   27   28 1    
    55   27   29 1    
    56   27   95 1    
    57   28   96 1    
    58   28   97 1    
    59   28   98 1    
    60   29   30 am   BACKBONE|DICT|INTERRES
    61   29   99 1    
    62   30   31 2    
    63   30   32 1    
    64   32   33 1    
    65   32   34 1    
    66   32  100 1    
    67   33  101 1    
    68   33  102 1    
    69   33  103 1    
    70   34   35 am   BACKBONE|DICT|INTERRES
    71   34  104 1    
    72   35   36 2    
    73   37   38 2    
    74   37   39 am   BACKBONE|DICT|INTERRES
    75   39   40 1    
    76   39  105 1    
    77   40   41 1    
    78   40   42 1    
    79   40  106 1    
    80   41  107 1    
    81   41  108 1    
    82   41  109 1    
    83   42   43 2    
    84   42   44 am   BACKBONE|DICT|INTERRES
    85   44   45 1    
    86   44  110 1    
    87   45   46 1    
    88   45   47 1    
    89   45  111 1    
    90   46  112 1    
    91   46  113 1    
    92   46  114 1    
    93   47   48 2    
    94   47   49 am   BACKBONE|DICT|INTERRES
    95   49   50 1    
    96   49  115 1    
    97   50   51 1    
    98   50   52 1    
    99   50  116 1    
   100   51  117 1    
   101   51  118 1    
   102   51  119 1    
   103   52   53 2    
   104   52   54 am   BACKBONE|DICT|INTERRES
   105   54   55 1    
   106   54  120 1    
   107   55   56 1    
   108   55   57 1    
   109   55  121 1    
   110   56  122 1    
   111   56  123 1    
   112   56  124 1    
   113   57   58 2    
   114   57   59 am   BACKBONE|DICT|INTERRES
   115   59   60 1    
   116   59  125 1    
   117   60   61 1    
   118   60   62 1    
   119   60  126 1    
   120   61  127 1    
   121   61  128 1    
   122   61  129 1    
   123   62   63 2    
   124   62   64 am   BACKBONE|DICT|INTERRES
   125   64   65 1    
   126   64  130 1    
   127   65   66 1    
   128   65   69 1    
   129   65  131 1    
   130   66   67 am   BACKBONE|DICT|INTERRES
   131   66   68 2    
   132   67  132 1    
   133   67  133 1    
   134   69   70 1    
   135   69  134 1    
   136   69  135 1    
   137   70   71 1    
   138   71  136 1    
   139   71  137 1    
@<TRIPOS>SUBSTRUCTURE
     1 UNK         1 GROUP             0       ****    0 ROOT    
