@<TRIPOS>MOLECULE
3R137
137   139    1
SMALL
USER_CHARGES


@<TRIPOS>ATOM
      1 CA         25.0712   -6.8864    0.3784 C.3       0 UNK        -0.2020 
      2 C          25.9577   -5.6572    0.2473 C.2       0 UNK         0.4855 
      3 O          26.3781   -5.0958    1.2591 O.2       0 UNK        -0.5197 
      4 N          26.2480   -5.2385   -0.9916 N.am      1 UNK        -0.4892 
      5 CA         27.0849   -4.0744   -1.3139 C.3       1 UNK         0.0835 
      6 C6         27.4425   -4.0266   -2.8184 C.3       12 UNK        -0.0855 
      7 S7         28.4020   -5.4706   -3.3889 S.3       12 UNK        -0.2931 
      8 C8         30.0967   -5.0618   -2.8530 C.3       12 UNK         0.0378 
      9 C9         30.5873   -3.7383   -3.4226 C.ar      12 UNK        -0.0802 
     10 C10        31.0371   -3.6573   -4.7435 C.ar      12 UNK        -0.0944 
     11 C11        31.4830   -2.4399   -5.2681 C.ar      12 UNK        -0.0787 
     12 C12        31.4755   -1.2986   -4.4598 C.ar      12 UNK        -0.0862 
     13 C13        31.0191   -1.3662   -3.1390 C.ar      12 UNK        -0.0733 
     14 C14        30.5879   -2.5911   -2.6242 C.ar      12 UNK        -0.0832 
     15 C15        30.9944   -0.1263   -2.2539 C.3       12 UNK         0.0240 
     16 S16        30.0722    1.2624   -2.9883 S.3       12 UNK        -0.2522 
     17 C17        28.4149    0.5472   -3.2873 C.3       12 UNK        -0.0967 
     18 CA         28.1011    0.3151   -4.7901 C.3       5 UNK         0.0660 
     19 N          26.8685   -0.4615   -4.9697 N.am      5 UNK        -0.4015 
     20 C          26.4490   -0.9508   -6.1491 C.2       4 UNK         0.4946 
     21 O          27.1063   -0.8757   -7.1853 O.2       4 UNK        -0.5353 
     22 CA         25.0374   -1.5651   -6.2272 C.3       4 UNK         0.0277 
     23 CB         25.0933   -3.0993   -6.1982 C.3       4 UNK        -0.1981 
     24 N          24.1114   -1.0787   -5.2018 N.am      4 UNK        -0.4209 
     25 C          23.7400    0.2014   -5.0542 C.2       3 UNK         0.4942 
     26 O          24.0895    1.1022   -5.8184 O.2       3 UNK        -0.5208 
     27 CA         22.8993    0.5523   -3.8127 C.3       3 UNK         0.0250 
     28 CB         21.4047    0.5633   -4.1691 C.3       3 UNK        -0.1990 
     29 N          23.1171   -0.3151   -2.6438 N.am      3 UNK        -0.4232 
     30 C          24.2990   -0.5693   -2.0594 C.2       2 UNK         0.4993 
     31 O          25.3690   -0.1492   -2.5017 O.2       2 UNK        -0.5286 
     32 CA         24.3017   -1.4530   -0.7954 C.3       2 UNK         0.0209 
     33 CB         22.8977   -1.8738   -0.3125 C.3       2 UNK        -0.1931 
     34 N          25.1030   -2.6566   -1.0218 N.am      2 UNK        -0.4546 
     35 C          26.4360   -2.7379   -0.8980 C.2       1 UNK         0.5154 
     36 O          27.1500   -1.8238   -0.4834 O.2       1 UNK        -0.5181 
     37 C          28.0605    1.6437   -5.5817 C.2       5 UNK         0.5014 
     38 O          29.0893    2.0597   -6.1132 O.2       5 UNK        -0.5248 
     39 N          26.8806    2.2767   -5.6620 N.am      6 UNK        -0.4434 
     40 CA         26.6628    3.4994   -6.4327 C.3       6 UNK         0.0363 
     41 CB         25.5307    4.3193   -5.7920 C.3       6 UNK        -0.1936 
     42 C          26.3459    3.1879   -7.9022 C.2       6 UNK         0.5081 
     43 O          26.8854    3.8506   -8.7883 O.2       6 UNK        -0.5248 
     44 N          25.4695    2.2005   -8.1397 N.am      7 UNK        -0.4718 
     45 CA         24.9845    1.8411   -9.4762 C.3       7 UNK         0.0273 
     46 CB         23.7443    0.9424   -9.3543 C.3       7 UNK        -0.1935 
     47 C          26.0479    1.1830  -10.3728 C.2       7 UNK         0.5018 
     48 O          26.0163    1.3960  -11.5855 O.2       7 UNK        -0.5186 
     49 N          26.9648    0.4108   -9.7768 N.am      8 UNK        -0.4240 
     50 CA         28.0647   -0.2683  -10.4585 C.3       8 UNK         0.0235 
     51 CB         27.7946   -1.7852  -10.4790 C.3       8 UNK        -0.2000 
     52 C          29.3864    0.0967   -9.7693 C.2       8 UNK         0.4941 
     53 O          30.1403   -0.7876   -9.3584 O.2       8 UNK        -0.5273 
     54 N          29.6635    1.4048   -9.6738 N.am      9 UNK        -0.4262 
     55 CA         30.8330    2.0136   -9.0219 C.3       9 UNK         0.0264 
     56 CB         30.5554    3.5160   -8.8224 C.3       9 UNK        -0.1955 
     57 C          32.1902    1.7666   -9.7237 C.2       9 UNK         0.5031 
     58 O          33.0600    2.6398   -9.7021 O.2       9 UNK        -0.5390 
     59 N          32.3734    0.5793  -10.3130 N.am      10 UNK        -0.4204 
     60 CA         33.6051    0.1297  -10.9682 C.3       10 UNK         0.0237 
     61 CB         33.2913   -1.1111  -11.8201 C.3       10 UNK        -0.1985 
     62 C          34.7429   -0.1717   -9.9757 C.2       10 UNK         0.4970 
     63 O          35.9069   -0.1772  -10.3776 O.2       10 UNK        -0.4914 
     64 N          34.3876   -0.4158   -8.7083 N.am      11 UNK        -0.4285 
     65 CA         35.3109   -0.6817   -7.5956 C.3       11 UNK         0.1007 
     66 C          36.1216    0.5593   -7.1167 C.2       11 UNK         0.5703 
     67 N          35.8014    1.7757   -7.5451 N.am      11 UNK        -0.7361 
     68 O          37.0658    0.4124   -6.3443 O.2       11 UNK        -0.4986 
     69 C69        34.5836   -1.3600   -6.4035 C.3       12 UNK        -0.0947 
     70 S70        33.6896   -2.8780   -6.8860 S.3       12 UNK        -0.2240 
     71 C71        31.9514   -2.3619   -6.7138 C.3       12 UNK         0.0194 
     72 H72        24.7792   -7.2854   -0.5929 H         1 UNK         0.0906 
     73 H73        25.5962   -7.6710    0.9226 H         1 UNK         0.0906 
     74 H74        24.1644   -6.6378    0.9293 H         1 UNK         0.0906 
     75 H75        25.9086   -5.7638   -1.7855 H         1 UNK         0.3140 
     76 H76        28.0106   -4.1636   -0.7414 H         1 UNK         0.1085 
     77 H77        26.5261   -3.9991   -3.4054 H         1 UNK         0.0836 
     78 H78        27.9736   -3.1099   -3.0772 H         1 UNK         0.0836 
     79 H79        30.7674   -5.8624   -3.1686 H         1 UNK         0.0731 
     80 H80        30.1358   -5.0500   -1.7627 H         1 UNK         0.0731 
     81 H81        31.0352   -4.5422   -5.3655 H         1 UNK         0.1312 
     82 H82        31.8067   -0.3504   -4.8604 H         1 UNK         0.1406 
     83 H83        30.2372   -2.6499   -1.6025 H         1 UNK         0.1631 
     84 H84        32.0204    0.1932   -2.0672 H         1 UNK         0.0717 
     85 H85        30.5597   -0.3508   -1.2784 H         1 UNK         0.0717 
     86 H86        28.3316   -0.3928   -2.7391 H         1 UNK         0.0934 
     87 H87        27.6731    1.2112   -2.8396 H         1 UNK         0.0934 
     88 H88        28.9091   -0.2843   -5.2143 H         1 UNK         0.0739 
     89 H89        26.2576   -0.5153   -4.1579 H         1 UNK         0.3093 
     90 H90        24.6260   -1.2753   -7.1936 H         1 UNK         0.0818 
     91 H91        25.4045   -3.4752   -5.2268 H         1 UNK         0.0819 
     92 H92        24.1208   -3.5344   -6.4289 H         1 UNK         0.0819 
     93 H93        25.7995   -3.4797   -6.9380 H         1 UNK         0.0819 
     94 H94        23.7772   -1.7516   -4.5279 H         1 UNK         0.3041 
     95 H95        23.1852    1.5635   -3.5160 H         1 UNK         0.0784 
     96 H96        21.2109    1.2178   -5.0205 H         1 UNK         0.0793 
     97 H97        21.0450   -0.4317   -4.4346 H         1 UNK         0.0793 
     98 H98        20.8002    0.9299   -3.3392 H         1 UNK         0.0793 
     99 H99        22.2889   -0.7097   -2.2216 H         1 UNK         0.3024 
    100 H100       24.7644   -0.8596   -0.0032 H         1 UNK         0.1171 
    101 H101       22.2762   -1.0051   -0.0897 H         1 UNK         0.0786 
    102 H102       22.9635   -2.4544    0.6082 H         1 UNK         0.0786 
    103 H103       22.3730   -2.4866   -1.0468 H         1 UNK         0.0786 
    104 H104       24.6132   -3.4705   -1.3637 H         1 UNK         0.2977 
    105 H105       26.0582    1.8424   -5.2623 H         1 UNK         0.3127 
    106 H106       27.5693    4.1086   -6.4071 H         1 UNK         0.0770 
    107 H107       24.5857    3.7752   -5.7825 H         1 UNK         0.0814 
    108 H108       25.3657    5.2475   -6.3407 H         1 UNK         0.0814 
    109 H109       25.7715    4.5899   -4.7639 H         1 UNK         0.0814 
    110 H110       25.0350    1.7327   -7.3478 H         1 UNK         0.2983 
    111 H111       24.6762    2.7657   -9.9697 H         1 UNK         0.0947 
    112 H112       23.2936    0.7710  -10.3328 H         1 UNK         0.0806 
    113 H113       22.9817    1.3960   -8.7207 H         1 UNK         0.0806 
    114 H114       23.9908   -0.0331   -8.9394 H         1 UNK         0.0806 
    115 H115       26.9245    0.2634   -8.7709 H         1 UNK         0.3000 
    116 H116       28.1494    0.0731  -11.4923 H         1 UNK         0.0850 
    117 H117       28.5885   -2.3168  -11.0051 H         1 UNK         0.0810 
    118 H118       26.8581   -2.0136  -10.9877 H         1 UNK         0.0810 
    119 H119       27.7375   -2.1978   -9.4709 H         1 UNK         0.0810 
    120 H120       28.9848    2.0534  -10.0478 H         1 UNK         0.3040 
    121 H121       30.9210    1.5611   -8.0323 H         1 UNK         0.0766 
    122 H122       29.6272    3.6790   -8.2748 H         1 UNK         0.0812 
    123 H123       30.4808    4.0419   -9.7748 H         1 UNK         0.0812 
    124 H124       31.3492    3.9916   -8.2449 H         1 UNK         0.0812 
    125 H125       31.6230   -0.1014  -10.2087 H         1 UNK         0.3205 
    126 H126       33.9500    0.9261  -11.6310 H         1 UNK         0.0754 
    127 H127       34.1814   -1.4609  -12.3451 H         1 UNK         0.0769 
    128 H128       32.5361   -0.8928  -12.5755 H         1 UNK         0.0769 
    129 H129       32.9259   -1.9379  -11.2091 H         1 UNK         0.0769 
    130 H130       33.4074   -0.4039   -8.4759 H         1 UNK         0.2981 
    131 H131       36.0535   -1.3912   -7.9655 H         1 UNK         0.0541 
    132 H132       35.0359    1.9129   -8.1878 H         1 UNK         0.3459 
    133 H133       36.3400    2.5660   -7.2277 H         1 UNK         0.3459 
    134 H134       35.3019   -1.6398   -5.6308 H         1 UNK         0.0612 
    135 H135       33.8947   -0.6583   -5.9327 H         1 UNK         0.0612 
    136 H136       31.3305   -3.0115   -7.3326 H         1 UNK         0.0624 
    137 H137       31.8177   -1.3543   -7.1106 H         1 UNK         0.0624 
@<TRIPOS>BOND
     1    1    2 1    
     2    1   72 1    
     3    1   73 1    
     4    1   74 1    
     5    2    3 2    
     6    2    4 am   BACKBONE|DICT|INTERRES
     7    4    5 1    
     8    4   75 1    
     9    5    6 1    
    10    5   35 1    
    11    5   76 1    
    12    6    7 1    
    13    6   77 1    
    14    6   78 1    
    15    7    8 1    
    16    8    9 1    
    17    8   79 1    
    18    8   80 1    
    19    9   10 ar   
    20    9   14 ar   
    21   10   11 ar   
    22   10   81 1    
    23   11   12 ar   
    24   11   71 1    
    25   12   13 ar   
    26   12   82 1    
    27   13   14 ar   
    28   13   15 1    
    29   14   83 1    
    30   15   16 1    
    31   15   84 1    
    32   15   85 1    
    33   16   17 1    
    34   17   18 1    
    35   17   86 1    
    36   17   87 1    
    37   18   19 1    
    38   18   37 1    
    39   18   88 1    
    40   19   20 am   BACKBONE|DICT|INTERRES
    41   19   89 1    
    42   20   21 2    
    43   20   22 1    
    44   22   23 1    
    45   22   24 1    
    46   22   90 1    
    47   23   91 1    
    48   23   92 1    
    49   23   93 1    
    50   24   25 am   BACKBONE|DICT|INTERRES
    51   24   94 1    
    52   25   26 2    
    53   25   27 1    
    54   27   28 1    
    55   27   29 1    
    56   27   95 1    
    57   28   96 1    
    58   28   97 1    
    59   28   98 1    
    60   29   30 am   BACKBONE|DICT|INTERRES
    61   29   99 1    
    62   30   31 2    
    63   30   32 1    
    64   32   33 1    
    65   32   34 1    
    66   32  100 1    
    67   33  101 1    
    68   33  102 1    
    69   33  103 1    
    70   34   35 am   BACKBONE|DICT|INTERRES
    71   34  104 1    
    72   35   36 2    
    73   37   38 2    
    74   37   39 am   BACKBONE|DICT|INTERRES
    75   39   40 1    
    76   39  105 1    
    77   40   41 1    
    78   40   42 1    
    79   40  106 1    
    80   41  107 1    
    81   41  108 1    
    82   41  109 1    
    83   42   43 2    
    84   42   44 am   BACKBONE|DICT|INTERRES
    85   44   45 1    
    86   44  110 1    
    87   45   46 1    
    88   45   47 1    
    89   45  111 1    
    90   46  112 1    
    91   46  113 1    
    92   46  114 1    
    93   47   48 2    
    94   47   49 am   BACKBONE|DICT|INTERRES
    95   49   50 1    
    96   49  115 1    
    97   50   51 1    
    98   50   52 1    
    99   50  116 1    
   100   51  117 1    
   101   51  118 1    
   102   51  119 1    
   103   52   53 2    
   104   52   54 am   BACKBONE|DICT|INTERRES
   105   54   55 1    
   106   54  120 1    
   107   55   56 1    
   108   55   57 1    
   109   55  121 1    
   110   56  122 1    
   111   56  123 1    
   112   56  124 1    
   113   57   58 2    
   114   57   59 am   BACKBONE|DICT|INTERRES
   115   59   60 1    
   116   59  125 1    
   117   60   61 1    
   118   60   62 1    
   119   60  126 1    
   120   61  127 1    
   121   61  128 1    
   122   61  129 1    
   123   62   63 2    
   124   62   64 am   BACKBONE|DICT|INTERRES
   125   64   65 1    
   126   64  130 1    
   127   65   66 1    
   128   65   69 1    
   129   65  131 1    
   130   66   67 am   BACKBONE|DICT|INTERRES
   131   66   68 2    
   132   67  132 1    
   133   67  133 1    
   134   69   70 1    
   135   69  134 1    
   136   69  135 1    
   137   70   71 1    
   138   71  136 1    
   139   71  137 1    
@<TRIPOS>SUBSTRUCTURE
     1 UNK         1 GROUP             0       ****    0 ROOT    
