@<TRIPOS>MOLECULE
3R137
137   139    1
SMALL
USER_CHARGES


@<TRIPOS>ATOM
      1 CA         25.7793   -5.3921    2.6717 C.3       0 UNK        -0.2020 
      2 C          25.6324   -4.4836    1.4603 C.2       0 UNK         0.4855 
      3 O          24.5213   -4.3045    0.9628 O.2       0 UNK        -0.5197 
      4 N          26.7428   -3.9052    0.9882 N.am      1 UNK        -0.4892 
      5 CA         26.8136   -3.0630   -0.2078 C.3       1 UNK         0.0835 
      6 C6         27.9962   -2.0657   -0.0886 C.3       12 UNK        -0.0855 
      7 S7         27.8014   -0.6008   -1.1554 S.3       12 UNK        -0.2931 
      8 C8         29.5420   -0.1108   -1.4182 C.3       12 UNK         0.0378 
      9 C9         30.1636   -0.6389   -2.7119 C.ar      12 UNK        -0.0802 
     10 C10        31.0605    0.1711   -3.4180 C.ar      12 UNK        -0.0944 
     11 C11        31.6795   -0.2945   -4.5818 C.ar      12 UNK        -0.0787 
     12 C12        31.3938   -1.5806   -5.0465 C.ar      12 UNK        -0.0862 
     13 C13        30.5061   -2.4047   -4.3525 C.ar      12 UNK        -0.0733 
     14 C14        29.8965   -1.9287   -3.1876 C.ar      12 UNK        -0.0832 
     15 C15        30.2366   -3.8221   -4.8411 C.3       12 UNK         0.0240 
     16 S16        29.2861   -3.8634   -6.3950 S.3       12 UNK        -0.2522 
     17 C17        27.7040   -3.1315   -5.8758 C.3       12 UNK        -0.0967 
     18 CA         27.2028   -2.0038   -6.8124 C.3       5 UNK         0.0660 
     19 N          25.7741   -1.7620   -6.5962 N.am      5 UNK        -0.4015 
     20 C          24.9612   -1.1061   -7.4354 C.2       4 UNK         0.4946 
     21 O          25.3240   -0.6503   -8.5180 O.2       4 UNK        -0.5353 
     22 CA         23.5019   -0.8992   -6.9859 C.3       4 UNK         0.0277 
     23 CB         22.6277   -2.0741   -7.4518 C.3       4 UNK        -0.1981 
     24 N          23.3569   -0.7288   -5.5377 N.am      4 UNK        -0.4209 
     25 C          23.8574    0.3001   -4.8381 C.2       3 UNK         0.4942 
     26 O          24.4263    1.2596   -5.3548 O.2       3 UNK        -0.5208 
     27 CA         23.7680    0.2175   -3.3019 C.3       3 UNK         0.0250 
     28 CB         22.4947    0.9158   -2.7996 C.3       3 UNK        -0.1990 
     29 N          23.8236   -1.1504   -2.7667 N.am      3 UNK        -0.4232 
     30 C          24.8217   -2.0157   -2.9928 C.2       2 UNK         0.4993 
     31 O          25.7912   -1.7612   -3.7087 O.2       2 UNK        -0.5286 
     32 CA         24.6662   -3.4214   -2.3960 C.3       2 UNK         0.0209 
     33 CB         23.7130   -4.2509   -3.2735 C.3       2 UNK        -0.1931 
     34 N          25.9514   -4.1241   -2.3318 N.am      2 UNK        -0.4546 
     35 C          26.9461   -3.9898   -1.4413 C.2       1 UNK         0.5154 
     36 O          27.9836   -4.6424   -1.5625 O.2       1 UNK        -0.5181 
     37 C          28.0068   -0.6933   -6.6678 C.2       5 UNK         0.5014 
     38 O          28.8981   -0.4251   -7.4797 O.2       5 UNK        -0.5248 
     39 N          27.6241    0.1290   -5.6779 N.am      6 UNK        -0.4434 
     40 CA         28.1333    1.4872   -5.4867 C.3       6 UNK         0.0363 
     41 CB         27.6714    2.0380   -4.1297 C.3       6 UNK        -0.1936 
     42 C          27.7179    2.4329   -6.6251 C.2       6 UNK         0.5081 
     43 O          28.5618    3.1785   -7.1190 O.2       6 UNK        -0.5248 
     44 N          26.4457    2.3687   -7.0473 N.am      7 UNK        -0.4718 
     45 CA         25.8940    3.1484   -8.1626 C.3       7 UNK         0.0273 
     46 CB         24.3697    2.9684   -8.2228 C.3       7 UNK        -0.1935 
     47 C          26.5332    2.8038   -9.5186 C.2       7 UNK         0.5018 
     48 O          26.7724    3.7082  -10.3194 O.2       7 UNK        -0.5186 
     49 N          26.8366    1.5156   -9.7358 N.am      8 UNK        -0.4240 
     50 CA         27.6117    1.0198  -10.8775 C.3       8 UNK         0.0235 
     51 CB         27.4713   -0.5095  -10.9576 C.3       8 UNK        -0.2000 
     52 C          29.1007    1.4135  -10.8277 C.2       8 UNK         0.4941 
     53 O          29.7709    1.3246  -11.8572 O.2       8 UNK        -0.5273 
     54 N          29.5856    1.8291   -9.6467 N.am      9 UNK        -0.4262 
     55 CA         30.9549    2.2392   -9.3272 C.3       9 UNK         0.0264 
     56 CB         31.3142    3.5572  -10.0448 C.3       9 UNK        -0.1955 
     57 C          31.9772    1.1179   -9.5730 C.2       9 UNK         0.5031 
     58 O          33.0528    1.3709  -10.1217 O.2       9 UNK        -0.5390 
     59 N          31.6410   -0.1075   -9.1438 N.am      10 UNK        -0.4204 
     60 CA         32.4511   -1.3214   -9.3158 C.3       10 UNK         0.0237 
     61 CB         31.5325   -2.5461   -9.1719 C.3       10 UNK        -0.1985 
     62 C          33.6857   -1.3852   -8.3856 C.2       10 UNK         0.4970 
     63 O          33.9462   -2.4230   -7.7751 O.2       10 UNK        -0.4914 
     64 N          34.4132   -0.2688   -8.2966 N.am      11 UNK        -0.4285 
     65 CA         35.6263   -0.0535   -7.4959 C.3       11 UNK         0.1007 
     66 C          36.8142    0.4821   -8.3480 C.2       11 UNK         0.5703 
     67 N          36.6770    0.6632   -9.6576 N.am      11 UNK        -0.7361 
     68 O          37.8965    0.7175   -7.8157 O.2       11 UNK        -0.4986 
     69 C69        35.3352    0.8613   -6.2719 C.3       12 UNK        -0.0947 
     70 S70        34.3763    0.0066   -4.9805 S.3       12 UNK        -0.2240 
     71 C71        32.6823    0.5700   -5.3274 C.3       12 UNK         0.0194 
     72 H72        25.4435   -6.3996    2.4275 H         1 UNK         0.0906 
     73 H73        25.1702   -5.0203    3.4952 H         1 UNK         0.0906 
     74 H74        26.8120   -5.4529    3.0148 H         1 UNK         0.0906 
     75 H75        27.6321   -4.1259    1.4146 H         1 UNK         0.3140 
     76 H76        25.8996   -2.4722   -0.2579 H         1 UNK         0.1085 
     77 H77        28.9555   -2.5525   -0.2750 H         1 UNK         0.0836 
     78 H78        28.0573   -1.6875    0.9334 H         1 UNK         0.0836 
     79 H79        29.5746    0.9798   -1.4153 H         1 UNK         0.0731 
     80 H80        30.1519   -0.4301   -0.5722 H         1 UNK         0.0731 
     81 H81        31.2912    1.1626   -3.0529 H         1 UNK         0.1312 
     82 H82        31.8792   -1.9490   -5.9396 H         1 UNK         0.1406 
     83 H83        29.2178   -2.5711   -2.6482 H         1 UNK         0.1631 
     84 H84        29.7054   -4.4007   -4.0832 H         1 UNK         0.0717 
     85 H85        31.1888   -4.3302   -5.0002 H         1 UNK         0.0717 
     86 H86        26.9782   -3.9460   -5.8557 H         1 UNK         0.0934 
     87 H87        27.7766   -2.7809   -4.8468 H         1 UNK         0.0934 
     88 H88        27.3184   -2.3434   -7.8441 H         1 UNK         0.0739 
     89 H89        25.4286   -2.0088   -5.6759 H         1 UNK         0.3093 
     90 H90        23.1333    0.0090   -7.4660 H         1 UNK         0.0818 
     91 H91        22.7003   -2.2083   -8.5322 H         1 UNK         0.0819 
     92 H92        22.9279   -3.0137   -6.9861 H         1 UNK         0.0819 
     93 H93        21.5763   -1.9037   -7.2193 H         1 UNK         0.0819 
     94 H94        22.8894   -1.4675   -5.0334 H         1 UNK         0.3041 
     95 H95        24.6317    0.7539   -2.9028 H         1 UNK         0.0784 
     96 H96        22.4424    1.9420   -3.1667 H         1 UNK         0.0793 
     97 H97        21.5923    0.4032   -3.1351 H         1 UNK         0.0793 
     98 H98        22.4706    0.9631   -1.7107 H         1 UNK         0.0793 
     99 H99        23.0469   -1.4375   -2.1877 H         1 UNK         0.3024 
    100 H100       24.2276   -3.3449   -1.4009 H         1 UNK         0.1171 
    101 H101       22.7223   -3.7969   -3.3235 H         1 UNK         0.0786 
    102 H102       24.0804   -4.3463   -4.2965 H         1 UNK         0.0786 
    103 H103       23.5812   -5.2560   -2.8716 H         1 UNK         0.0786 
    104 H104       26.1268   -4.7431   -3.1081 H         1 UNK         0.2977 
    105 H105       26.9031   -0.1869   -5.0411 H         1 UNK         0.3127 
    106 H106       29.2240    1.4327   -5.4783 H         1 UNK         0.0770 
    107 H107       26.5869    2.1283   -4.0711 H         1 UNK         0.0814 
    108 H108       28.0913    3.0282   -3.9492 H         1 UNK         0.0814 
    109 H109       27.9960    1.3962   -3.3140 H         1 UNK         0.0814 
    110 H110       25.7899    1.7860   -6.5308 H         1 UNK         0.2983 
    111 H111       26.1041    4.2009   -7.9603 H         1 UNK         0.0947 
    112 H112       24.0957    1.9363   -8.4394 H         1 UNK         0.0806 
    113 H113       23.9346    3.5915   -9.0054 H         1 UNK         0.0806 
    114 H114       23.8973    3.2520   -7.2821 H         1 UNK         0.0806 
    115 H115       26.5155    0.8190   -9.0687 H         1 UNK         0.3000 
    116 H116       27.1904    1.4521  -11.7875 H         1 UNK         0.0850 
    117 H117       28.0194   -0.9105  -11.8113 H         1 UNK         0.0810 
    118 H118       26.4290   -0.8065  -11.0742 H         1 UNK         0.0810 
    119 H119       27.8601   -0.9959  -10.0621 H         1 UNK         0.0810 
    120 H120       28.9425    1.8636   -8.8650 H         1 UNK         0.3040 
    121 H121       30.9725    2.4336   -8.2538 H         1 UNK         0.0766 
    122 H122       31.3631    3.4297  -11.1267 H         1 UNK         0.0812 
    123 H123       32.2859    3.9285   -9.7170 H         1 UNK         0.0812 
    124 H124       30.5813    4.3353   -9.8307 H         1 UNK         0.0812 
    125 H125       30.7500   -0.2215   -8.6697 H         1 UNK         0.3205 
    126 H126       32.8365   -1.3242  -10.3375 H         1 UNK         0.0754 
    127 H127       32.0738   -3.4746   -9.3581 H         1 UNK         0.0769 
    128 H128       30.7028   -2.5081   -9.8782 H         1 UNK         0.0769 
    129 H129       31.1141   -2.6043   -8.1687 H         1 UNK         0.0769 
    130 H130       34.1188    0.5165   -8.8722 H         1 UNK         0.2981 
    131 H131       35.9783   -1.0168   -7.1230 H         1 UNK         0.0541 
    132 H132       35.8065    0.4627  -10.1235 H         1 UNK         0.3459 
    133 H133       37.4635    1.0026  -10.1887 H         1 UNK         0.3459 
    134 H134       34.8210    1.7739   -6.5785 H         1 UNK         0.0612 
    135 H135       36.2631    1.1837   -5.7962 H         1 UNK         0.0612 
    136 H136       32.5836    1.6185   -5.0426 H         1 UNK         0.0624 
    137 H137       32.4789    0.5178   -6.3965 H         1 UNK         0.0624 
@<TRIPOS>BOND
     1    1    2 1    
     2    1   72 1    
     3    1   73 1    
     4    1   74 1    
     5    2    3 2    
     6    2    4 am   BACKBONE|DICT|INTERRES
     7    4    5 1    
     8    4   75 1    
     9    5    6 1    
    10    5   35 1    
    11    5   76 1    
    12    6    7 1    
    13    6   77 1    
    14    6   78 1    
    15    7    8 1    
    16    8    9 1    
    17    8   79 1    
    18    8   80 1    
    19    9   10 ar   
    20    9   14 ar   
    21   10   11 ar   
    22   10   81 1    
    23   11   12 ar   
    24   11   71 1    
    25   12   13 ar   
    26   12   82 1    
    27   13   14 ar   
    28   13   15 1    
    29   14   83 1    
    30   15   16 1    
    31   15   84 1    
    32   15   85 1    
    33   16   17 1    
    34   17   18 1    
    35   17   86 1    
    36   17   87 1    
    37   18   19 1    
    38   18   37 1    
    39   18   88 1    
    40   19   20 am   BACKBONE|DICT|INTERRES
    41   19   89 1    
    42   20   21 2    
    43   20   22 1    
    44   22   23 1    
    45   22   24 1    
    46   22   90 1    
    47   23   91 1    
    48   23   92 1    
    49   23   93 1    
    50   24   25 am   BACKBONE|DICT|INTERRES
    51   24   94 1    
    52   25   26 2    
    53   25   27 1    
    54   27   28 1    
    55   27   29 1    
    56   27   95 1    
    57   28   96 1    
    58   28   97 1    
    59   28   98 1    
    60   29   30 am   BACKBONE|DICT|INTERRES
    61   29   99 1    
    62   30   31 2    
    63   30   32 1    
    64   32   33 1    
    65   32   34 1    
    66   32  100 1    
    67   33  101 1    
    68   33  102 1    
    69   33  103 1    
    70   34   35 am   BACKBONE|DICT|INTERRES
    71   34  104 1    
    72   35   36 2    
    73   37   38 2    
    74   37   39 am   BACKBONE|DICT|INTERRES
    75   39   40 1    
    76   39  105 1    
    77   40   41 1    
    78   40   42 1    
    79   40  106 1    
    80   41  107 1    
    81   41  108 1    
    82   41  109 1    
    83   42   43 2    
    84   42   44 am   BACKBONE|DICT|INTERRES
    85   44   45 1    
    86   44  110 1    
    87   45   46 1    
    88   45   47 1    
    89   45  111 1    
    90   46  112 1    
    91   46  113 1    
    92   46  114 1    
    93   47   48 2    
    94   47   49 am   BACKBONE|DICT|INTERRES
    95   49   50 1    
    96   49  115 1    
    97   50   51 1    
    98   50   52 1    
    99   50  116 1    
   100   51  117 1    
   101   51  118 1    
   102   51  119 1    
   103   52   53 2    
   104   52   54 am   BACKBONE|DICT|INTERRES
   105   54   55 1    
   106   54  120 1    
   107   55   56 1    
   108   55   57 1    
   109   55  121 1    
   110   56  122 1    
   111   56  123 1    
   112   56  124 1    
   113   57   58 2    
   114   57   59 am   BACKBONE|DICT|INTERRES
   115   59   60 1    
   116   59  125 1    
   117   60   61 1    
   118   60   62 1    
   119   60  126 1    
   120   61  127 1    
   121   61  128 1    
   122   61  129 1    
   123   62   63 2    
   124   62   64 am   BACKBONE|DICT|INTERRES
   125   64   65 1    
   126   64  130 1    
   127   65   66 1    
   128   65   69 1    
   129   65  131 1    
   130   66   67 am   BACKBONE|DICT|INTERRES
   131   66   68 2    
   132   67  132 1    
   133   67  133 1    
   134   69   70 1    
   135   69  134 1    
   136   69  135 1    
   137   70   71 1    
   138   71  136 1    
   139   71  137 1    
@<TRIPOS>SUBSTRUCTURE
     1 UNK         1 GROUP             0       ****    0 ROOT    
