@<TRIPOS>MOLECULE
3R137
137   139    1
SMALL
USER_CHARGES


@<TRIPOS>ATOM
      1 CA         27.7005    0.7766    3.0040 C.3       0 UNK        -0.2020 
      2 C          28.0184    1.0964    1.5512 C.2       0 UNK         0.4855 
      3 O          28.1025    2.2691    1.1862 O.2       0 UNK        -0.5197 
      4 N          28.1959    0.0625    0.7185 N.am      1 UNK        -0.4892 
      5 CA         28.4823    0.1784   -0.7182 C.3       1 UNK         0.0835 
      6 C6         29.0894   -1.1314   -1.2792 C.3       12 UNK        -0.0855 
      7 S7         28.0146   -2.5951   -1.0728 S.3       12 UNK        -0.2931 
      8 C8         29.2390   -3.9407   -1.1043 C.3       12 UNK         0.0378 
      9 C9         29.7187   -4.2422   -2.5173 C.ar      12 UNK        -0.0802 
     10 C10        30.9364   -3.7350   -2.9834 C.ar      12 UNK        -0.0944 
     11 C11        31.3938   -4.0573   -4.2663 C.ar      12 UNK        -0.0787 
     12 C12        30.6191   -4.8843   -5.0868 C.ar      12 UNK        -0.0862 
     13 C13        29.3994   -5.3915   -4.6332 C.ar      12 UNK        -0.0733 
     14 C14        28.9554   -5.0675   -3.3480 C.ar      12 UNK        -0.0832 
     15 C15        28.5746   -6.3224   -5.5069 C.3       12 UNK         0.0240 
     16 S16        27.1591   -5.4613   -6.2539 S.3       12 UNK        -0.2522 
     17 C17        27.7838   -4.9957   -7.9117 C.3       12 UNK        -0.0967 
     18 CA         27.4044   -3.5569   -8.3644 C.3       5 UNK         0.0660 
     19 N          26.0521   -3.1900   -7.9387 N.am      5 UNK        -0.4015 
     20 C          25.3500   -2.1227   -8.3330 C.2       4 UNK         0.4946 
     21 O          25.7330   -1.3197   -9.1830 O.2       4 UNK        -0.5353 
     22 CA         24.0071   -1.8908   -7.6165 C.3       4 UNK         0.0277 
     23 CB         22.8719   -2.5992   -8.3729 C.3       4 UNK        -0.1981 
     24 N          23.9782   -2.2971   -6.2013 N.am      4 UNK        -0.4209 
     25 C          24.8367   -1.8967   -5.2511 C.2       3 UNK         0.4942 
     26 O          25.8368   -1.2125   -5.4735 O.2       3 UNK        -0.5208 
     27 CA         24.5642   -2.3800   -3.8180 C.3       3 UNK         0.0250 
     28 CB         25.3814   -3.6467   -3.5220 C.3       3 UNK        -0.1990 
     29 N          24.9042   -1.3520   -2.8308 N.am      3 UNK        -0.4232 
     30 C          24.2625   -0.1820   -2.6944 C.2       2 UNK         0.4993 
     31 O          23.2705    0.1285   -3.3562 O.2       2 UNK        -0.5286 
     32 CA         24.7770    0.8043   -1.6290 C.3       2 UNK         0.0209 
     33 CB         23.7369    0.9828   -0.5092 C.3       2 UNK        -0.1931 
     34 N          26.0504    0.4096   -1.0216 N.am      2 UNK        -0.4546 
     35 C          27.2620    0.6489   -1.5433 C.2       1 UNK         0.5154 
     36 O          27.4389    1.2232   -2.6176 O.2       1 UNK        -0.5181 
     37 C          28.4865   -2.5194   -7.9889 C.2       5 UNK         0.5014 
     38 O          29.5077   -2.4701   -8.6752 O.2       5 UNK        -0.5248 
     39 N          28.2498   -1.7062   -6.9507 N.am      6 UNK        -0.4434 
     40 CA         29.1253   -0.6110   -6.5340 C.3       6 UNK         0.0363 
     41 CB         29.3588   -0.7073   -5.0221 C.3       6 UNK        -0.1936 
     42 C          28.5147    0.7517   -6.8900 C.2       6 UNK         0.5081 
     43 O          29.2279    1.6296   -7.3796 O.2       6 UNK        -0.5248 
     44 N          27.1986    0.9036   -6.6716 N.am      7 UNK        -0.4718 
     45 CA         26.4224    2.1324   -6.8856 C.3       7 UNK         0.0273 
     46 CB         25.0148    1.9556   -6.2962 C.3       7 UNK        -0.1935 
     47 C          26.3545    2.6092   -8.3489 C.2       7 UNK         0.5018 
     48 O          26.0137    3.7680   -8.5866 O.2       7 UNK        -0.5186 
     49 N          26.7438    1.7441   -9.2956 N.am      8 UNK        -0.4240 
     50 CA         27.0428    2.0752  -10.6929 C.3       8 UNK         0.0235 
     51 CB         27.1333    0.7651  -11.4952 C.3       8 UNK        -0.2000 
     52 C          28.3230    2.9244  -10.8860 C.2       8 UNK         0.4941 
     53 O          28.6575    3.2286  -12.0315 O.2       8 UNK        -0.5273 
     54 N          29.0078    3.2802   -9.7869 N.am      9 UNK        -0.4262 
     55 CA         30.2766    4.0060   -9.6816 C.3       9 UNK         0.0264 
     56 CB         30.2569    5.3531  -10.4377 C.3       9 UNK        -0.1955 
     57 C          31.4510    3.0926  -10.0583 C.2       9 UNK         0.5031 
     58 O          32.2199    3.4045  -10.9704 O.2       9 UNK        -0.5390 
     59 N          31.5527    1.9688   -9.3410 N.am      10 UNK        -0.4204 
     60 CA         32.6030    0.9652   -9.4831 C.3       10 UNK         0.0237 
     61 CB         32.0606   -0.2084  -10.3176 C.3       10 UNK        -0.1985 
     62 C          33.0473    0.4924   -8.0933 C.2       10 UNK         0.4970 
     63 O          32.3282    0.7131   -7.1178 O.2       10 UNK        -0.4914 
     64 N          34.2210   -0.1524   -8.0492 N.am      11 UNK        -0.4285 
     65 CA         34.8358   -0.8473   -6.9000 C.3       11 UNK         0.1007 
     66 C          34.9956   -0.0518   -5.5661 C.2       11 UNK         0.5703 
     67 N          34.9325    1.2738   -5.5770 N.am      11 UNK        -0.7361 
     68 O          35.2368   -0.6372   -4.5126 O.2       11 UNK        -0.4986 
     69 C69        34.3127   -2.3042   -6.7293 C.3       12 UNK        -0.0947 
     70 S70        32.5717   -2.4674   -6.2054 S.3       12 UNK        -0.2240 
     71 C71        32.7429   -3.5523   -4.7572 C.3       12 UNK         0.0194 
     72 H72        26.7358    1.2020    3.2792 H         1 UNK         0.0906 
     73 H73        27.6625   -0.2972    3.1871 H         1 UNK         0.0906 
     74 H74        28.4605    1.2047    3.6571 H         1 UNK         0.0906 
     75 H75        28.1203   -0.8839    1.0666 H         1 UNK         0.3140 
     76 H76        29.2380    0.9586   -0.8363 H         1 UNK         0.1085 
     77 H77        29.3391   -1.0233   -2.3332 H         1 UNK         0.0836 
     78 H78        30.0395   -1.3210   -0.7776 H         1 UNK         0.0836 
     79 H79        30.0793   -3.6972   -0.4524 H         1 UNK         0.0731 
     80 H80        28.7817   -4.8358   -0.6798 H         1 UNK         0.0731 
     81 H81        31.5348   -3.1032   -2.3414 H         1 UNK         0.1312 
     82 H82        30.9736   -5.1376   -6.0767 H         1 UNK         0.1406 
     83 H83        28.0149   -5.4649   -2.9907 H         1 UNK         0.1631 
     84 H84        28.1954   -7.1421   -4.8948 H         1 UNK         0.0717 
     85 H85        29.1890   -6.7871   -6.2794 H         1 UNK         0.0717 
     86 H86        28.8625   -5.1561   -7.9687 H         1 UNK         0.0934 
     87 H87        27.3550   -5.7094   -8.6168 H         1 UNK         0.0934 
     88 H88        27.3844   -3.5614   -9.4566 H         1 UNK         0.0739 
     89 H89        25.6592   -3.7822   -7.2209 H         1 UNK         0.3093 
     90 H90        23.8095   -0.8193   -7.6487 H         1 UNK         0.0818 
     91 H91        21.8970   -2.3466   -7.9555 H         1 UNK         0.0819 
     92 H92        22.8575   -2.3022   -9.4228 H         1 UNK         0.0819 
     93 H93        22.9806   -3.6841   -8.3430 H         1 UNK         0.0819 
     94 H94        23.1979   -2.8756   -5.9238 H         1 UNK         0.3041 
     95 H95        23.5021   -2.6105   -3.7129 H         1 UNK         0.0784 
     96 H96        25.0911   -4.4634   -4.1837 H         1 UNK         0.0793 
     97 H97        26.4496   -3.4754   -3.6643 H         1 UNK         0.0793 
     98 H98        25.2307   -3.9911   -2.4988 H         1 UNK         0.0793 
     99 H99        25.7300   -1.5134   -2.2723 H         1 UNK         0.3024 
    100 H100       24.9099    1.7670   -2.1284 H         1 UNK         0.1171 
    101 H101       22.7818    1.3238   -0.9115 H         1 UNK         0.0786 
    102 H102       24.0618    1.7262    0.2192 H         1 UNK         0.0786 
    103 H103       23.5513    0.0486    0.0225 H         1 UNK         0.0786 
    104 H104       26.0067   -0.0706   -0.1343 H         1 UNK         0.2977 
    105 H105       27.3674   -1.7829   -6.4522 H         1 UNK         0.3127 
    106 H106       30.0937   -0.6861   -7.0312 H         1 UNK         0.0770 
    107 H107       28.4236   -0.6245   -4.4671 H         1 UNK         0.0814 
    108 H108       30.0222    0.0875   -4.6786 H         1 UNK         0.0814 
    109 H109       29.8223   -1.6570   -4.7579 H         1 UNK         0.0814 
    110 H110       26.6923    0.1309   -6.2399 H         1 UNK         0.2983 
    111 H111       26.9228    2.9240   -6.3239 H         1 UNK         0.0947 
    112 H112       24.4417    2.8811   -6.3659 H         1 UNK         0.0806 
    113 H113       25.0574    1.6797   -5.2421 H         1 UNK         0.0806 
    114 H114       24.4529    1.1852   -6.8210 H         1 UNK         0.0806 
    115 H115       26.9431    0.7950   -9.0067 H         1 UNK         0.3000 
    116 H116       26.2104    2.6621  -11.0862 H         1 UNK         0.0850 
    117 H117       27.3212    0.9591  -12.5520 H         1 UNK         0.0810 
    118 H118       26.2035    0.1992  -11.4349 H         1 UNK         0.0810 
    119 H119       27.9386    0.1256  -11.1310 H         1 UNK         0.0810 
    120 H120       28.6871    2.8879   -8.9080 H         1 UNK         0.3040 
    121 H121       30.3986    4.2383   -8.6223 H         1 UNK         0.0766 
    122 H122       31.1545    5.9312  -10.2157 H         1 UNK         0.0812 
    123 H123       29.3993    5.9594  -10.1465 H         1 UNK         0.0812 
    124 H124       30.2237    5.2198  -11.5191 H         1 UNK         0.0812 
    125 H125       30.9121    1.8114   -8.5652 H         1 UNK         0.3205 
    126 H126       33.4710    1.3985   -9.9850 H         1 UNK         0.0754 
    127 H127       32.8166   -0.9824  -10.4543 H         1 UNK         0.0769 
    128 H128       31.7511    0.1215  -11.3096 H         1 UNK         0.0769 
    129 H129       31.1991   -0.6745   -9.8375 H         1 UNK         0.0769 
    130 H130       34.7392   -0.2368   -8.9115 H         1 UNK         0.2981 
    131 H131       35.8730   -0.9618   -7.2166 H         1 UNK         0.0541 
    132 H132       34.7160    1.7656   -6.4286 H         1 UNK         0.3459 
    133 H133       35.0533    1.7808   -4.7149 H         1 UNK         0.3459 
    134 H134       34.4132   -2.8352   -7.6768 H         1 UNK         0.0612 
    135 H135       34.9539   -2.8462   -6.0322 H         1 UNK         0.0612 
    136 H136       33.2703   -3.0105   -3.9704 H         1 UNK         0.0624 
    137 H137       33.3637   -4.4103   -5.0189 H         1 UNK         0.0624 
@<TRIPOS>BOND
     1    1    2 1    
     2    1   72 1    
     3    1   73 1    
     4    1   74 1    
     5    2    3 2    
     6    2    4 am   BACKBONE|DICT|INTERRES
     7    4    5 1    
     8    4   75 1    
     9    5    6 1    
    10    5   35 1    
    11    5   76 1    
    12    6    7 1    
    13    6   77 1    
    14    6   78 1    
    15    7    8 1    
    16    8    9 1    
    17    8   79 1    
    18    8   80 1    
    19    9   10 ar   
    20    9   14 ar   
    21   10   11 ar   
    22   10   81 1    
    23   11   12 ar   
    24   11   71 1    
    25   12   13 ar   
    26   12   82 1    
    27   13   14 ar   
    28   13   15 1    
    29   14   83 1    
    30   15   16 1    
    31   15   84 1    
    32   15   85 1    
    33   16   17 1    
    34   17   18 1    
    35   17   86 1    
    36   17   87 1    
    37   18   19 1    
    38   18   37 1    
    39   18   88 1    
    40   19   20 am   BACKBONE|DICT|INTERRES
    41   19   89 1    
    42   20   21 2    
    43   20   22 1    
    44   22   23 1    
    45   22   24 1    
    46   22   90 1    
    47   23   91 1    
    48   23   92 1    
    49   23   93 1    
    50   24   25 am   BACKBONE|DICT|INTERRES
    51   24   94 1    
    52   25   26 2    
    53   25   27 1    
    54   27   28 1    
    55   27   29 1    
    56   27   95 1    
    57   28   96 1    
    58   28   97 1    
    59   28   98 1    
    60   29   30 am   BACKBONE|DICT|INTERRES
    61   29   99 1    
    62   30   31 2    
    63   30   32 1    
    64   32   33 1    
    65   32   34 1    
    66   32  100 1    
    67   33  101 1    
    68   33  102 1    
    69   33  103 1    
    70   34   35 am   BACKBONE|DICT|INTERRES
    71   34  104 1    
    72   35   36 2    
    73   37   38 2    
    74   37   39 am   BACKBONE|DICT|INTERRES
    75   39   40 1    
    76   39  105 1    
    77   40   41 1    
    78   40   42 1    
    79   40  106 1    
    80   41  107 1    
    81   41  108 1    
    82   41  109 1    
    83   42   43 2    
    84   42   44 am   BACKBONE|DICT|INTERRES
    85   44   45 1    
    86   44  110 1    
    87   45   46 1    
    88   45   47 1    
    89   45  111 1    
    90   46  112 1    
    91   46  113 1    
    92   46  114 1    
    93   47   48 2    
    94   47   49 am   BACKBONE|DICT|INTERRES
    95   49   50 1    
    96   49  115 1    
    97   50   51 1    
    98   50   52 1    
    99   50  116 1    
   100   51  117 1    
   101   51  118 1    
   102   51  119 1    
   103   52   53 2    
   104   52   54 am   BACKBONE|DICT|INTERRES
   105   54   55 1    
   106   54  120 1    
   107   55   56 1    
   108   55   57 1    
   109   55  121 1    
   110   56  122 1    
   111   56  123 1    
   112   56  124 1    
   113   57   58 2    
   114   57   59 am   BACKBONE|DICT|INTERRES
   115   59   60 1    
   116   59  125 1    
   117   60   61 1    
   118   60   62 1    
   119   60  126 1    
   120   61  127 1    
   121   61  128 1    
   122   61  129 1    
   123   62   63 2    
   124   62   64 am   BACKBONE|DICT|INTERRES
   125   64   65 1    
   126   64  130 1    
   127   65   66 1    
   128   65   69 1    
   129   65  131 1    
   130   66   67 am   BACKBONE|DICT|INTERRES
   131   66   68 2    
   132   67  132 1    
   133   67  133 1    
   134   69   70 1    
   135   69  134 1    
   136   69  135 1    
   137   70   71 1    
   138   71  136 1    
   139   71  137 1    
@<TRIPOS>SUBSTRUCTURE
     1 UNK         1 GROUP             0       ****    0 ROOT    
