@<TRIPOS>MOLECULE
3R137
137   139    1
SMALL
USER_CHARGES


@<TRIPOS>ATOM
      1 CA         26.6367    0.9282    4.1714 C.3       0 UNK        -0.2020 
      2 C          26.8947    0.7032    2.6889 C.2       0 UNK         0.4855 
      3 O          27.1221    1.6642    1.9538 O.2       0 UNK        -0.5197 
      4 N          26.8599   -0.5563    2.2444 N.am      1 UNK        -0.4892 
      5 CA         27.0491   -0.9771    0.8580 C.3       1 UNK         0.0835 
      6 C6         28.5526   -1.0813    0.4906 C.3       12 UNK        -0.0855 
      7 S7         28.8314   -0.9528   -1.3039 S.3       12 UNK        -0.2931 
      8 C8         29.6176   -2.5498   -1.6734 C.3       12 UNK         0.0378 
      9 C9         29.8614   -2.7049   -3.1678 C.ar      12 UNK        -0.0802 
     10 C10        30.8694   -1.9688   -3.7979 C.ar      12 UNK        -0.0944 
     11 C11        31.0918   -2.1003   -5.1723 C.ar      12 UNK        -0.0787 
     12 C12        30.3089   -2.9881   -5.9162 C.ar      12 UNK        -0.0862 
     13 C13        29.3073   -3.7385   -5.2948 C.ar      12 UNK        -0.0733 
     14 C14        29.0852   -3.5883   -3.9230 C.ar      12 UNK        -0.0832 
     15 C15        28.4747   -4.7302   -6.0909 C.3       12 UNK         0.0240 
     16 S16        26.8866   -4.0128   -6.6095 S.3       12 UNK        -0.2522 
     17 C17        27.3355   -3.1521   -8.1580 C.3       12 UNK        -0.0967 
     18 CA         26.9716   -1.6475   -8.1788 C.3       5 UNK         0.0660 
     19 N          25.5860   -1.3988   -7.7643 N.am      5 UNK        -0.4015 
     20 C          24.9699   -0.2082   -7.7532 C.2       4 UNK         0.4946 
     21 O          25.4638    0.8132   -8.2342 O.2       4 UNK        -0.5353 
     22 CA         23.6116   -0.1101   -7.0345 C.3       4 UNK         0.0277 
     23 CB         22.4764   -0.0089   -8.0658 C.3       4 UNK        -0.1981 
     24 N          23.3074   -1.1914   -6.0844 N.am      4 UNK        -0.4209 
     25 C          24.0493   -1.5691   -5.0316 C.2       3 UNK         0.4942 
     26 O          25.1534   -1.0912   -4.7561 O.2       3 UNK        -0.5208 
     27 CA         23.4640   -2.6919   -4.1648 C.3       3 UNK         0.0250 
     28 CB         23.2730   -3.9945   -4.9713 C.3       3 UNK        -0.1990 
     29 N          24.3405   -2.9404   -3.0204 N.am      3 UNK        -0.4232 
     30 C          23.9665   -3.5554   -1.8910 C.2       2 UNK         0.4993 
     31 O          22.8146   -3.9300   -1.6672 O.2       2 UNK        -0.5286 
     32 CA         25.0456   -3.8030   -0.8310 C.3       2 UNK         0.0209 
     33 CB         25.9883   -4.9453   -1.2509 C.3       2 UNK        -0.1931 
     34 N          25.8078   -2.5890   -0.5261 N.am      2 UNK        -0.4546 
     35 C          26.3069   -2.3135    0.6855 C.2       1 UNK         0.5154 
     36 O          26.2024   -3.0695    1.6573 O.2       1 UNK        -0.5181 
     37 C          28.0049   -0.7766   -7.4298 C.2       5 UNK         0.5014 
     38 O          29.0324   -0.4402   -8.0211 O.2       5 UNK        -0.5248 
     39 N          27.6777   -0.3354   -6.2054 N.am      6 UNK        -0.4434 
     40 CA         28.4169    0.6705   -5.4373 C.3       6 UNK         0.0363 
     41 CB         27.6601    0.9391   -4.1293 C.3       6 UNK        -0.1936 
     42 C          28.6427    1.9997   -6.1852 C.2       6 UNK         0.5081 
     43 O          29.6416    2.6690   -5.9228 O.2       6 UNK        -0.5248 
     44 N          27.7277    2.3495   -7.1002 N.am      7 UNK        -0.4718 
     45 CA         27.8329    3.5020   -7.9925 C.3       7 UNK         0.0273 
     46 CB         26.5422    4.3323   -7.8980 C.3       7 UNK        -0.1935 
     47 C          28.0824    3.0649   -9.4440 C.2       7 UNK         0.5018 
     48 O          28.8942    3.6930  -10.1230 O.2       7 UNK        -0.5186 
     49 N          27.3736    2.0230   -9.9065 N.am      8 UNK        -0.4240 
     50 CA         27.3899    1.5740  -11.3021 C.3       8 UNK         0.0235 
     51 CB         26.1628    0.6911  -11.5825 C.3       8 UNK        -0.2000 
     52 C          28.6894    0.8648  -11.7192 C.2       8 UNK         0.4941 
     53 O          29.1528    1.0897  -12.8381 O.2       8 UNK        -0.5273 
     54 N          29.2558    0.0339  -10.8324 N.am      9 UNK        -0.4262 
     55 CA         30.5592   -0.6097  -11.0298 C.3       9 UNK         0.0264 
     56 CB         30.5450   -2.0368  -10.4542 C.3       9 UNK        -0.1955 
     57 C          31.6795    0.2241  -10.3915 C.2       9 UNK         0.5031 
     58 O          32.7942    0.2280  -10.9142 O.2       9 UNK        -0.5390 
     59 N          31.3684    0.9112   -9.2809 N.am      10 UNK        -0.4204 
     60 CA         32.1752    1.8967   -8.5425 C.3       10 UNK         0.0237 
     61 CB         32.5516    3.0924   -9.4394 C.3       10 UNK        -0.1985 
     62 C          33.4165    1.3440   -7.8163 C.2       10 UNK         0.4970 
     63 O          33.7981    1.9140   -6.7933 O.2       10 UNK        -0.4914 
     64 N          33.9992    0.2500   -8.3215 N.am      11 UNK        -0.4285 
     65 CA         35.1846   -0.4419   -7.7905 C.3       11 UNK         0.1007 
     66 C          36.4847    0.4172   -7.8882 C.2       11 UNK         0.5703 
     67 N          37.5587    0.0320   -7.2104 N.am      11 UNK        -0.7361 
     68 O          36.5554    1.4057   -8.6176 O.2       11 UNK        -0.4986 
     69 C69        34.9401   -1.0552   -6.3771 C.3       12 UNK        -0.0947 
     70 S70        33.5925   -2.2862   -6.3367 S.3       12 UNK        -0.2240 
     71 C71        32.1622   -1.2677   -5.8571 C.3       12 UNK         0.0194 
     72 H72        26.4548   -0.0073    4.7004 H         1 UNK         0.0906 
     73 H73        27.4956    1.4160    4.6317 H         1 UNK         0.0906 
     74 H74        25.7666    1.5697    4.3080 H         1 UNK         0.0906 
     75 H75        26.6273   -1.3233    2.8656 H         1 UNK         0.3140 
     76 H76        26.5646   -0.2373    0.2159 H         1 UNK         0.1085 
     77 H77        29.0017   -1.9917    0.8929 H         1 UNK         0.0836 
     78 H78        29.1061   -0.2578    0.9447 H         1 UNK         0.0836 
     79 H79        28.9863   -3.3579   -1.2997 H         1 UNK         0.0731 
     80 H80        30.5661   -2.6209   -1.1387 H         1 UNK         0.0731 
     81 H81        31.4693   -1.2817   -3.2166 H         1 UNK         0.1312 
     82 H82        30.4844   -3.0923   -6.9778 H         1 UNK         0.1406 
     83 H83        28.3092   -4.1676   -3.4457 H         1 UNK         0.1631 
     84 H84        28.2723   -5.6081   -5.4755 H         1 UNK         0.0717 
     85 H85        29.0259   -5.0955   -6.9587 H         1 UNK         0.0717 
     86 H86        28.3933   -3.2973   -8.3838 H         1 UNK         0.0934 
     87 H87        26.8032   -3.6559   -8.9664 H         1 UNK         0.0934 
     88 H88        27.0330   -1.3316   -9.2199 H         1 UNK         0.0739 
     89 H89        25.1199   -2.1787   -7.3244 H         1 UNK         0.3093 
     90 H90        23.6335    0.8186   -6.4608 H         1 UNK         0.0818 
     91 H91        21.5186    0.1927   -7.5858 H         1 UNK         0.0819 
     92 H92        22.6584    0.8046   -8.7701 H         1 UNK         0.0819 
     93 H93        22.3763   -0.9261   -8.6475 H         1 UNK         0.0819 
     94 H94        22.4215   -1.6561   -6.2243 H         1 UNK         0.3041 
     95 H95        22.4946   -2.3461   -3.7992 H         1 UNK         0.0784 
     96 H96        22.6276   -3.8462   -5.8374 H         1 UNK         0.0793 
     97 H97        24.2236   -4.3855   -5.3335 H         1 UNK         0.0793 
     98 H98        22.8084   -4.7722   -4.3651 H         1 UNK         0.0793 
     99 H99        25.2892   -2.6135   -3.1503 H         1 UNK         0.3024 
    100 H100       24.5157   -4.1223    0.0703 H         1 UNK         0.1171 
    101 H101       26.7134   -5.1717   -0.4690 H         1 UNK         0.0786 
    102 H102       25.4274   -5.8602   -1.4467 H         1 UNK         0.0786 
    103 H103       26.5372   -4.7010   -2.1586 H         1 UNK         0.0786 
    104 H104       25.9075   -1.9071   -1.2651 H         1 UNK         0.2977 
    105 H105       26.8144   -0.6685   -5.7846 H         1 UNK         0.3127 
    106 H106       29.3942    0.2482   -5.1990 H         1 UNK         0.0770 
    107 H107       26.7058    1.4358   -4.3097 H         1 UNK         0.0814 
    108 H108       27.4497    0.0111   -3.6001 H         1 UNK         0.0814 
    109 H109       28.2436    1.5740   -3.4615 H         1 UNK         0.0814 
    110 H110       26.9402    1.7296   -7.2601 H         1 UNK         0.2983 
    111 H111       28.6679    4.1407   -7.6954 H         1 UNK         0.0947 
    112 H112       26.3882    4.7070   -6.8860 H         1 UNK         0.0806 
    113 H113       25.6627    3.7495   -8.1757 H         1 UNK         0.0806 
    114 H114       26.5847    5.1976   -8.5609 H         1 UNK         0.0806 
    115 H115       26.6888    1.5836   -9.2933 H         1 UNK         0.3000 
    116 H116       27.2984    2.4635  -11.9298 H         1 UNK         0.0850 
    117 H117       26.1267    0.3983  -12.6328 H         1 UNK         0.0810 
    118 H118       25.2358    1.2213  -11.3631 H         1 UNK         0.0810 
    119 H119       26.1694   -0.2234  -10.9921 H         1 UNK         0.0810 
    120 H120       28.8456   -0.0658   -9.9102 H         1 UNK         0.3040 
    121 H121       30.7719   -0.6897  -12.0981 H         1 UNK         0.0766 
    122 H122       30.4779   -2.0457   -9.3670 H         1 UNK         0.0812 
    123 H123       31.4616   -2.5651  -10.7192 H         1 UNK         0.0812 
    124 H124       29.7114   -2.6175  -10.8492 H         1 UNK         0.0812 
    125 H125       30.4614    0.7129   -8.8696 H         1 UNK         0.3205 
    126 H126       31.5152    2.2756   -7.7619 H         1 UNK         0.0754 
    127 H127       33.0445    3.8734   -8.8590 H         1 UNK         0.0769 
    128 H128       31.6683    3.5378   -9.8972 H         1 UNK         0.0769 
    129 H129       33.2353    2.8036  -10.2383 H         1 UNK         0.0769 
    130 H130       33.6652   -0.0683   -9.2255 H         1 UNK         0.2981 
    131 H131       35.3556   -1.2692   -8.4799 H         1 UNK         0.0541 
    132 H132       37.5412   -0.7880   -6.6251 H         1 UNK         0.3459 
    133 H133       38.4052    0.5738   -7.2887 H         1 UNK         0.3459 
    134 H134       34.7594   -0.2774   -5.6344 H         1 UNK         0.0612 
    135 H135       35.8286   -1.5860   -6.0341 H         1 UNK         0.0612 
    136 H136       32.4827   -0.4544   -5.2044 H         1 UNK         0.0624 
    137 H137       31.7357   -0.8029   -6.7466 H         1 UNK         0.0624 
@<TRIPOS>BOND
     1    1    2 1    
     2    1   72 1    
     3    1   73 1    
     4    1   74 1    
     5    2    3 2    
     6    2    4 am   BACKBONE|DICT|INTERRES
     7    4    5 1    
     8    4   75 1    
     9    5    6 1    
    10    5   35 1    
    11    5   76 1    
    12    6    7 1    
    13    6   77 1    
    14    6   78 1    
    15    7    8 1    
    16    8    9 1    
    17    8   79 1    
    18    8   80 1    
    19    9   10 ar   
    20    9   14 ar   
    21   10   11 ar   
    22   10   81 1    
    23   11   12 ar   
    24   11   71 1    
    25   12   13 ar   
    26   12   82 1    
    27   13   14 ar   
    28   13   15 1    
    29   14   83 1    
    30   15   16 1    
    31   15   84 1    
    32   15   85 1    
    33   16   17 1    
    34   17   18 1    
    35   17   86 1    
    36   17   87 1    
    37   18   19 1    
    38   18   37 1    
    39   18   88 1    
    40   19   20 am   BACKBONE|DICT|INTERRES
    41   19   89 1    
    42   20   21 2    
    43   20   22 1    
    44   22   23 1    
    45   22   24 1    
    46   22   90 1    
    47   23   91 1    
    48   23   92 1    
    49   23   93 1    
    50   24   25 am   BACKBONE|DICT|INTERRES
    51   24   94 1    
    52   25   26 2    
    53   25   27 1    
    54   27   28 1    
    55   27   29 1    
    56   27   95 1    
    57   28   96 1    
    58   28   97 1    
    59   28   98 1    
    60   29   30 am   BACKBONE|DICT|INTERRES
    61   29   99 1    
    62   30   31 2    
    63   30   32 1    
    64   32   33 1    
    65   32   34 1    
    66   32  100 1    
    67   33  101 1    
    68   33  102 1    
    69   33  103 1    
    70   34   35 am   BACKBONE|DICT|INTERRES
    71   34  104 1    
    72   35   36 2    
    73   37   38 2    
    74   37   39 am   BACKBONE|DICT|INTERRES
    75   39   40 1    
    76   39  105 1    
    77   40   41 1    
    78   40   42 1    
    79   40  106 1    
    80   41  107 1    
    81   41  108 1    
    82   41  109 1    
    83   42   43 2    
    84   42   44 am   BACKBONE|DICT|INTERRES
    85   44   45 1    
    86   44  110 1    
    87   45   46 1    
    88   45   47 1    
    89   45  111 1    
    90   46  112 1    
    91   46  113 1    
    92   46  114 1    
    93   47   48 2    
    94   47   49 am   BACKBONE|DICT|INTERRES
    95   49   50 1    
    96   49  115 1    
    97   50   51 1    
    98   50   52 1    
    99   50  116 1    
   100   51  117 1    
   101   51  118 1    
   102   51  119 1    
   103   52   53 2    
   104   52   54 am   BACKBONE|DICT|INTERRES
   105   54   55 1    
   106   54  120 1    
   107   55   56 1    
   108   55   57 1    
   109   55  121 1    
   110   56  122 1    
   111   56  123 1    
   112   56  124 1    
   113   57   58 2    
   114   57   59 am   BACKBONE|DICT|INTERRES
   115   59   60 1    
   116   59  125 1    
   117   60   61 1    
   118   60   62 1    
   119   60  126 1    
   120   61  127 1    
   121   61  128 1    
   122   61  129 1    
   123   62   63 2    
   124   62   64 am   BACKBONE|DICT|INTERRES
   125   64   65 1    
   126   64  130 1    
   127   65   66 1    
   128   65   69 1    
   129   65  131 1    
   130   66   67 am   BACKBONE|DICT|INTERRES
   131   66   68 2    
   132   67  132 1    
   133   67  133 1    
   134   69   70 1    
   135   69  134 1    
   136   69  135 1    
   137   70   71 1    
   138   71  136 1    
   139   71  137 1    
@<TRIPOS>SUBSTRUCTURE
     1 UNK         1 GROUP             0       ****    0 ROOT    
