@<TRIPOS>MOLECULE
3R137
137   139    1
SMALL
USER_CHARGES


@<TRIPOS>ATOM
      1 CA         25.7311   -6.1247   -6.0204 C.3       0 UNK        -0.2020 
      2 C          25.7909   -5.6026   -4.5932 C.2       0 UNK         0.4855 
      3 O          24.7565   -5.2468   -4.0279 O.2       0 UNK        -0.5197 
      4 N          26.9971   -5.5385   -4.0132 N.am      1 UNK        -0.4892 
      5 CA         27.2784   -5.0391   -2.6619 C.3       1 UNK         0.0835 
      6 C6         28.7756   -5.2227   -2.3168 C.3       12 UNK        -0.0855 
      7 S7         29.1178   -4.9988   -0.5402 S.3       12 UNK        -0.2931 
      8 C8         30.8439   -4.4166   -0.5820 C.3       12 UNK         0.0378 
      9 C9         30.9880   -3.0183   -1.1724 C.ar      12 UNK        -0.0802 
     10 C10        31.7565   -2.8124   -2.3233 C.ar      12 UNK        -0.0944 
     11 C11        31.9526   -1.5214   -2.8237 C.ar      12 UNK        -0.0787 
     12 C12        31.3634   -0.4343   -2.1724 C.ar      12 UNK        -0.0862 
     13 C13        30.5674   -0.6273   -1.0384 C.ar      12 UNK        -0.0733 
     14 C14        30.3927   -1.9224   -0.5397 C.ar      12 UNK        -0.0832 
     15 C15        29.9096    0.5520   -0.3262 C.3       12 UNK         0.0240 
     16 S16        29.1196    1.7560   -1.4499 S.3       12 UNK        -0.2522 
     17 C17        27.9622    0.7078   -2.3927 C.3       12 UNK        -0.0967 
     18 CA         28.1510    0.8709   -3.9247 C.3       5 UNK         0.0660 
     19 N          27.8301   -0.3620   -4.6477 N.am      5 UNK        -0.4015 
     20 C          27.9446   -0.5499   -5.9703 C.2       4 UNK         0.4946 
     21 O          28.4176    0.2760   -6.7489 O.2       4 UNK        -0.5353 
     22 CA         27.3614   -1.8556   -6.5316 C.3       4 UNK         0.0277 
     23 CB         28.3634   -3.0154   -6.4070 C.3       4 UNK        -0.1981 
     24 N          26.0891   -2.1939   -5.8904 N.am      4 UNK        -0.4209 
     25 C          24.9508   -1.5109   -6.0897 C.2       3 UNK         0.4942 
     26 O          24.8434   -0.5846   -6.8924 O.2       3 UNK        -0.5208 
     27 CA         23.7427   -1.8868   -5.2164 C.3       3 UNK         0.0250 
     28 CB         22.9126   -2.9982   -5.8768 C.3       3 UNK        -0.1990 
     29 N          24.1370   -2.2867   -3.8630 N.am      3 UNK        -0.4232 
     30 C          24.6130   -1.4288   -2.9468 C.2       2 UNK         0.4993 
     31 O          24.7191   -0.2178   -3.1405 O.2       2 UNK        -0.5286 
     32 CA         25.1115   -2.0194   -1.6151 C.3       2 UNK         0.0209 
     33 CB         23.9602   -2.1128   -0.6019 C.3       2 UNK        -0.1931 
     34 N          25.7480   -3.3331   -1.7590 N.am      2 UNK        -0.4546 
     35 C          26.8267   -3.5711   -2.5180 C.2       1 UNK         0.5154 
     36 O          27.4158   -2.6931   -3.1491 O.2       1 UNK        -0.5181 
     37 C          27.3519    2.0783   -4.4606 C.2       5 UNK         0.5014 
     38 O          27.9399    3.1286   -4.7218 O.2       5 UNK        -0.5248 
     39 N          26.0340    1.8940   -4.6395 N.am      6 UNK        -0.4434 
     40 CA         25.1195    2.8854   -5.2109 C.3       6 UNK         0.0363 
     41 CB         23.6691    2.4027   -5.0513 C.3       6 UNK        -0.1936 
     42 C          25.4232    3.2166   -6.6827 C.2       6 UNK         0.5081 
     43 O          25.3593    4.3875   -7.0588 O.2       6 UNK        -0.5248 
     44 N          25.7550    2.1946   -7.4858 N.am      7 UNK        -0.4718 
     45 CA         26.1707    2.3454   -8.8847 C.3       7 UNK         0.0273 
     46 CB         26.1685    0.9707   -9.5720 C.3       7 UNK        -0.1935 
     47 C          27.5467    3.0174   -9.0369 C.2       7 UNK         0.5018 
     48 O          27.7676    3.7203  -10.0243 O.2       7 UNK        -0.5186 
     49 N          28.4452    2.7730   -8.0725 N.am      8 UNK        -0.4240 
     50 CA         29.8184    3.2691   -7.9214 C.3       8 UNK         0.0235 
     51 CB         29.8709    4.8073   -7.8514 C.3       8 UNK        -0.2000 
     52 C          30.7966    2.7139   -8.9676 C.2       8 UNK         0.4941 
     53 O          31.8412    2.1832   -8.5923 O.2       8 UNK        -0.5273 
     54 N          30.4360    2.8023  -10.2548 N.am      9 UNK        -0.4262 
     55 CA         31.2046    2.2795  -11.3902 C.3       9 UNK         0.0264 
     56 CB         30.5315    2.7131  -12.7018 C.3       9 UNK        -0.1955 
     57 C          31.3839    0.7511  -11.3548 C.2       9 UNK         0.5031 
     58 O          32.4030    0.2476  -11.8290 O.2       9 UNK        -0.5390 
     59 N          30.4140    0.0471  -10.7545 N.am      10 UNK        -0.4204 
     60 CA         30.4247   -1.3994  -10.5244 C.3       10 UNK         0.0237 
     61 CB         29.0620   -1.8172   -9.9558 C.3       10 UNK        -0.1985 
     62 C          31.5613   -1.8813   -9.6022 C.2       10 UNK         0.4970 
     63 O          31.9637   -3.0398   -9.7142 O.2       10 UNK        -0.4914 
     64 N          32.0694   -0.9976   -8.7323 N.am      11 UNK        -0.4285 
     65 CA         33.2654   -1.2368   -7.9115 C.3       11 UNK         0.1007 
     66 C          34.6049   -1.0967   -8.6968 C.2       11 UNK         0.5703 
     67 N          34.6166   -0.6609   -9.9526 N.am      11 UNK        -0.7361 
     68 O          35.6636   -1.4078   -8.1561 O.2       11 UNK        -0.4986 
     69 C69        33.2659   -0.3553   -6.6353 C.3       12 UNK        -0.0947 
     70 S70        31.8964   -0.7537   -5.4948 S.3       12 UNK        -0.2240 
     71 C71        32.8429   -1.2868   -4.0344 C.3       12 UNK         0.0194 
     72 H72        25.4596   -5.3214   -6.7045 H         1 UNK         0.0906 
     73 H73        26.6862   -6.5381   -6.3439 H         1 UNK         0.0906 
     74 H74        24.9796   -6.9097   -6.1008 H         1 UNK         0.0906 
     75 H75        27.8068   -5.8350   -4.5392 H         1 UNK         0.3140 
     76 H76        26.6945   -5.6516   -1.9713 H         1 UNK         0.1085 
     77 H77        29.0992   -6.2312   -2.5793 H         1 UNK         0.0836 
     78 H78        29.3933   -4.5455   -2.9103 H         1 UNK         0.0836 
     79 H79        31.4490   -5.1386   -1.1330 H         1 UNK         0.0731 
     80 H80        31.2342   -4.4082    0.4366 H         1 UNK         0.0731 
     81 H81        32.2249   -3.6541   -2.8150 H         1 UNK         0.1312 
     82 H82        31.5219    0.5644   -2.5558 H         1 UNK         0.1406 
     83 H83        29.7970   -2.0836    0.3487 H         1 UNK         0.1631 
     84 H84        30.6665    1.0694    0.2644 H         1 UNK         0.0717 
     85 H85        29.1548    0.2007    0.3791 H         1 UNK         0.0717 
     86 H86        28.1241   -0.3312   -2.1048 H         1 UNK         0.0934 
     87 H87        26.9419    0.9339   -2.0772 H         1 UNK         0.0934 
     88 H88        29.2072    1.0587   -4.1313 H         1 UNK         0.0739 
     89 H89        27.5150   -1.1485   -4.0828 H         1 UNK         0.3093 
     90 H90        27.1561   -1.7010   -7.5917 H         1 UNK         0.0818 
     91 H91        28.6172   -3.2321   -5.3698 H         1 UNK         0.0819 
     92 H92        27.9735   -3.9276   -6.8582 H         1 UNK         0.0819 
     93 H93        29.2969   -2.7749   -6.9182 H         1 UNK         0.0819 
     94 H94        26.1156   -2.8894   -5.1590 H         1 UNK         0.3041 
     95 H95        23.1085   -1.0014   -5.1343 H         1 UNK         0.0784 
     96 H96        22.5655   -2.6881   -6.8635 H         1 UNK         0.0793 
     97 H97        23.4869   -3.9146   -6.0089 H         1 UNK         0.0793 
     98 H98        22.0298   -3.2388   -5.2843 H         1 UNK         0.0793 
     99 H99        24.1280   -3.2803   -3.6542 H         1 UNK         0.3024 
    100 H100       25.8617   -1.3325   -1.2177 H         1 UNK         0.1171 
    101 H101       24.3167   -2.4383    0.3756 H         1 UNK         0.0786 
    102 H102       23.4834   -1.1412   -0.4634 H         1 UNK         0.0786 
    103 H103       23.1886   -2.8110   -0.9289 H         1 UNK         0.0786 
    104 H104       25.2935   -4.1102   -1.3008 H         1 UNK         0.2977 
    105 H105       25.6168    1.0225   -4.3213 H         1 UNK         0.3127 
    106 H106       25.2348    3.8066   -4.6359 H         1 UNK         0.0770 
    107 H107       23.4908    1.4742   -5.5942 H         1 UNK         0.0814 
    108 H108       22.9670    3.1444   -5.4341 H         1 UNK         0.0814 
    109 H109       23.4208    2.2305   -4.0039 H         1 UNK         0.0814 
    110 H110       25.7105    1.2483   -7.1198 H         1 UNK         0.2983 
    111 H111       25.4391    2.9809   -9.3885 H         1 UNK         0.0947 
    112 H112       26.4576    1.0549  -10.6205 H         1 UNK         0.0806 
    113 H113       25.1779    0.5164   -9.5442 H         1 UNK         0.0806 
    114 H114       26.8636    0.2809   -9.0937 H         1 UNK         0.0806 
    115 H115       28.1859    2.0728   -7.3808 H         1 UNK         0.3000 
    116 H116       30.1508    2.8887   -6.9536 H         1 UNK         0.0850 
    117 H117       30.8840    5.1510   -7.6393 H         1 UNK         0.0810 
    118 H118       29.2267    5.1853   -7.0572 H         1 UNK         0.0810 
    119 H119       29.5597    5.2740   -8.7863 H         1 UNK         0.0810 
    120 H120       29.5407    3.2437  -10.4542 H         1 UNK         0.3040 
    121 H121       32.2004    2.7259  -11.3491 H         1 UNK         0.0766 
    122 H122       30.4795    3.7992  -12.7806 H         1 UNK         0.0812 
    123 H123       29.5165    2.3219  -12.7840 H         1 UNK         0.0812 
    124 H124       31.0918    2.3532  -13.5660 H         1 UNK         0.0812 
    125 H125       29.6243    0.5580  -10.3892 H         1 UNK         0.3205 
    126 H126       30.5613   -1.8886  -11.4911 H         1 UNK         0.0754 
    127 H127       29.0273   -2.8890   -9.7548 H         1 UNK         0.0769 
    128 H128       28.2516   -1.5900  -10.6487 H         1 UNK         0.0769 
    129 H129       28.8620   -1.2990   -9.0195 H         1 UNK         0.0769 
    130 H130       31.7075   -0.0529   -8.7089 H         1 UNK         0.2981 
    131 H131       33.2373   -2.2765   -7.5796 H         1 UNK         0.0541 
    132 H132       33.7623   -0.4063  -10.4344 H         1 UNK         0.3459 
    133 H133       35.4985   -0.5881  -10.4340 H         1 UNK         0.3459 
    134 H134       33.1989    0.7008   -6.8981 H         1 UNK         0.0612 
    135 H135       34.2096   -0.4641   -6.0981 H         1 UNK         0.0612 
    136 H136       33.4033   -2.1889   -4.2849 H         1 UNK         0.0624 
    137 H137       33.5800   -0.5225   -3.7835 H         1 UNK         0.0624 
@<TRIPOS>BOND
     1    1    2 1    
     2    1   72 1    
     3    1   73 1    
     4    1   74 1    
     5    2    3 2    
     6    2    4 am   BACKBONE|DICT|INTERRES
     7    4    5 1    
     8    4   75 1    
     9    5    6 1    
    10    5   35 1    
    11    5   76 1    
    12    6    7 1    
    13    6   77 1    
    14    6   78 1    
    15    7    8 1    
    16    8    9 1    
    17    8   79 1    
    18    8   80 1    
    19    9   10 ar   
    20    9   14 ar   
    21   10   11 ar   
    22   10   81 1    
    23   11   12 ar   
    24   11   71 1    
    25   12   13 ar   
    26   12   82 1    
    27   13   14 ar   
    28   13   15 1    
    29   14   83 1    
    30   15   16 1    
    31   15   84 1    
    32   15   85 1    
    33   16   17 1    
    34   17   18 1    
    35   17   86 1    
    36   17   87 1    
    37   18   19 1    
    38   18   37 1    
    39   18   88 1    
    40   19   20 am   BACKBONE|DICT|INTERRES
    41   19   89 1    
    42   20   21 2    
    43   20   22 1    
    44   22   23 1    
    45   22   24 1    
    46   22   90 1    
    47   23   91 1    
    48   23   92 1    
    49   23   93 1    
    50   24   25 am   BACKBONE|DICT|INTERRES
    51   24   94 1    
    52   25   26 2    
    53   25   27 1    
    54   27   28 1    
    55   27   29 1    
    56   27   95 1    
    57   28   96 1    
    58   28   97 1    
    59   28   98 1    
    60   29   30 am   BACKBONE|DICT|INTERRES
    61   29   99 1    
    62   30   31 2    
    63   30   32 1    
    64   32   33 1    
    65   32   34 1    
    66   32  100 1    
    67   33  101 1    
    68   33  102 1    
    69   33  103 1    
    70   34   35 am   BACKBONE|DICT|INTERRES
    71   34  104 1    
    72   35   36 2    
    73   37   38 2    
    74   37   39 am   BACKBONE|DICT|INTERRES
    75   39   40 1    
    76   39  105 1    
    77   40   41 1    
    78   40   42 1    
    79   40  106 1    
    80   41  107 1    
    81   41  108 1    
    82   41  109 1    
    83   42   43 2    
    84   42   44 am   BACKBONE|DICT|INTERRES
    85   44   45 1    
    86   44  110 1    
    87   45   46 1    
    88   45   47 1    
    89   45  111 1    
    90   46  112 1    
    91   46  113 1    
    92   46  114 1    
    93   47   48 2    
    94   47   49 am   BACKBONE|DICT|INTERRES
    95   49   50 1    
    96   49  115 1    
    97   50   51 1    
    98   50   52 1    
    99   50  116 1    
   100   51  117 1    
   101   51  118 1    
   102   51  119 1    
   103   52   53 2    
   104   52   54 am   BACKBONE|DICT|INTERRES
   105   54   55 1    
   106   54  120 1    
   107   55   56 1    
   108   55   57 1    
   109   55  121 1    
   110   56  122 1    
   111   56  123 1    
   112   56  124 1    
   113   57   58 2    
   114   57   59 am   BACKBONE|DICT|INTERRES
   115   59   60 1    
   116   59  125 1    
   117   60   61 1    
   118   60   62 1    
   119   60  126 1    
   120   61  127 1    
   121   61  128 1    
   122   61  129 1    
   123   62   63 2    
   124   62   64 am   BACKBONE|DICT|INTERRES
   125   64   65 1    
   126   64  130 1    
   127   65   66 1    
   128   65   69 1    
   129   65  131 1    
   130   66   67 am   BACKBONE|DICT|INTERRES
   131   66   68 2    
   132   67  132 1    
   133   67  133 1    
   134   69   70 1    
   135   69  134 1    
   136   69  135 1    
   137   70   71 1    
   138   71  136 1    
   139   71  137 1    
@<TRIPOS>SUBSTRUCTURE
     1 UNK         1 GROUP             0       ****    0 ROOT    
