@<TRIPOS>MOLECULE
3R137
137   139    1
SMALL
USER_CHARGES


@<TRIPOS>ATOM
      1 CA         31.7565   -6.4126   -6.5373 C.3       0 UNK        -0.2020 
      2 C          30.8364   -6.6791   -5.3554 C.2       0 UNK         0.4855 
      3 O          30.4341   -7.8215   -5.1343 O.2       0 UNK        -0.5197 
      4 N          30.5012   -5.6304   -4.5972 N.am      1 UNK        -0.4892 
      5 CA         29.5349   -5.6629   -3.4971 C.3       1 UNK         0.0835 
      6 C6         29.8504   -4.5428   -2.4775 C.3       12 UNK        -0.0855 
      7 S7         28.8153   -4.5693   -0.9737 S.3       12 UNK        -0.2931 
      8 C8         29.8101   -3.5531    0.1641 C.3       12 UNK         0.0378 
      9 C9         30.1782   -2.2045   -0.4405 C.ar      12 UNK        -0.0802 
     10 C10        31.4668   -1.9894   -0.9342 C.ar      12 UNK        -0.0944 
     11 C11        31.8236   -0.7570   -1.4871 C.ar      12 UNK        -0.0787 
     12 C12        30.8740    0.2709   -1.5464 C.ar      12 UNK        -0.0862 
     13 C13        29.5805    0.0694   -1.0493 C.ar      12 UNK        -0.0733 
     14 C14        29.2399   -1.1710   -0.4990 C.ar      12 UNK        -0.0832 
     15 C15        28.5589    1.1984   -1.0443 C.3       12 UNK         0.0240 
     16 S16        27.1966    0.9076   -2.2193 S.3       12 UNK        -0.2522 
     17 C17        27.7207    1.8578   -3.6867 C.3       12 UNK        -0.0967 
     18 CA         27.6127    1.0381   -5.0034 C.3       5 UNK         0.0660 
     19 N          26.2640    0.5156   -5.2507 N.am      5 UNK        -0.4015 
     20 C          25.1794    1.2020   -5.6497 C.2       4 UNK         0.4946 
     21 O          25.1908    2.4039   -5.9237 O.2       4 UNK        -0.5353 
     22 CA         23.8465    0.4343   -5.7765 C.3       4 UNK         0.0277 
     23 CB         23.4423    0.2743   -7.2502 C.3       4 UNK        -0.1981 
     24 N          23.8739   -0.8896   -5.1530 N.am      4 UNK        -0.4209 
     25 C          23.7778   -1.1178   -3.8362 C.2       3 UNK         0.4942 
     26 O          23.5514   -0.2384   -3.0048 O.2       3 UNK        -0.5208 
     27 CA         23.9752   -2.5705   -3.3603 C.3       3 UNK         0.0250 
     28 CB         22.6173   -3.2217   -3.0493 C.3       3 UNK        -0.1990 
     29 N          24.7209   -3.4337   -4.2883 N.am      3 UNK        -0.4232 
     30 C          25.9882   -3.2333   -4.6756 C.2       2 UNK         0.4993 
     31 O          26.6475   -2.2368   -4.3742 O.2       2 UNK        -0.5286 
     32 CA         26.6163   -4.2965   -5.5859 C.3       2 UNK         0.0209 
     33 CB         26.8010   -3.7542   -7.0103 C.3       2 UNK        -0.1931 
     34 N          27.9209   -4.6686   -5.0502 N.am      2 UNK        -0.4546 
     35 C          28.1024   -5.5464   -4.0550 C.2       1 UNK         0.5154 
     36 O          27.2027   -6.2537   -3.5966 O.2       1 UNK        -0.5181 
     37 C          28.1552    1.7823   -6.2424 C.2       5 UNK         0.5014 
     38 O          28.4257    1.1364   -7.2557 O.2       5 UNK        -0.5248 
     39 N          28.2894    3.1155   -6.1523 N.am      6 UNK        -0.4434 
     40 CA         28.8404    4.0007   -7.1815 C.3       6 UNK         0.0363 
     41 CB         28.8294    5.4499   -6.6719 C.3       6 UNK        -0.1936 
     42 C          28.1365    3.9031   -8.5427 C.2       6 UNK         0.5081 
     43 O          28.8092    3.9496   -9.5735 O.2       6 UNK        -0.5248 
     44 N          26.8094    3.7197   -8.5224 N.am      7 UNK        -0.4718 
     45 CA         25.9768    3.5483   -9.7163 C.3       7 UNK         0.0273 
     46 CB         24.5061    3.7848   -9.3403 C.3       7 UNK        -0.1935 
     47 C          26.1660    2.1894  -10.4191 C.2       7 UNK         0.5018 
     48 O          25.7394    2.0498  -11.5656 O.2       7 UNK        -0.5186 
     49 N          26.8197    1.2308   -9.7488 N.am      8 UNK        -0.4240 
     50 CA         27.2261   -0.0649  -10.2945 C.3       8 UNK         0.0235 
     51 CB         26.7298   -1.1753   -9.3529 C.3       8 UNK        -0.2000 
     52 C          28.7513   -0.1226  -10.5132 C.2       8 UNK         0.4941 
     53 O          29.3166   -1.2163  -10.5049 O.2       8 UNK        -0.5273 
     54 N          29.3766    1.0481  -10.7212 N.am      9 UNK        -0.4262 
     55 CA         30.8099    1.3015  -10.8937 C.3       9 UNK         0.0264 
     56 CB         31.4142    0.4896  -12.0595 C.3       9 UNK        -0.1955 
     57 C          31.5715    1.1034   -9.5741 C.2       9 UNK         0.5031 
     58 O          32.0308   -0.0029   -9.2793 O.2       9 UNK        -0.5390 
     59 N          31.6845    2.1974   -8.8081 N.am      10 UNK        -0.4204 
     60 CA         32.3891    2.3561   -7.5270 C.3       10 UNK         0.0237 
     61 CB         33.9061    2.1212   -7.6813 C.3       10 UNK        -0.1985 
     62 C          31.8021    1.5238   -6.3736 C.2       10 UNK         0.4970 
     63 O          31.3191    2.1045   -5.4013 O.2       10 UNK        -0.4914 
     64 N          31.8708    0.1970   -6.5020 N.am      11 UNK        -0.4285 
     65 CA         31.4072   -0.8051   -5.5311 C.3       11 UNK         0.1007 
     66 C          30.6409   -1.9762   -6.2129 C.2       11 UNK         0.5703 
     67 N          30.4014   -1.9601   -7.5190 N.am      11 UNK        -0.7361 
     68 O          30.2528   -2.9313   -5.5446 O.2       11 UNK        -0.4986 
     69 C69        32.5662   -1.3226   -4.6290 C.3       12 UNK        -0.0947 
     70 S70        33.3928    0.0096   -3.6888 S.3       12 UNK        -0.2240 
     71 C71        33.2568   -0.5411   -1.9602 C.3       12 UNK         0.0194 
     72 H72        31.2763   -6.7247   -7.4642 H         1 UNK         0.0906 
     73 H73        32.0086   -5.3557   -6.6269 H         1 UNK         0.0906 
     74 H74        32.6832   -6.9749   -6.4265 H         1 UNK         0.0906 
     75 H75        30.7932   -4.6996   -4.8808 H         1 UNK         0.3140 
     76 H76        29.6143   -6.6238   -2.9833 H         1 UNK         0.1085 
     77 H77        30.8935   -4.6280   -2.1691 H         1 UNK         0.0836 
     78 H78        29.7521   -3.5595   -2.9429 H         1 UNK         0.0836 
     79 H79        29.2488   -3.4000    1.0869 H         1 UNK         0.0731 
     80 H80        30.7079   -4.1070    0.4433 H         1 UNK         0.0731 
     81 H81        32.1980   -2.7844   -0.8794 H         1 UNK         0.1312 
     82 H82        31.1507    1.2299   -1.9634 H         1 UNK         0.1406 
     83 H83        28.2415   -1.3316   -0.1144 H         1 UNK         0.1631 
     84 H84        29.0326    2.1615   -1.2397 H         1 UNK         0.0717 
     85 H85        28.1335    1.2772   -0.0428 H         1 UNK         0.0717 
     86 H86        27.0986    2.7536   -3.7293 H         1 UNK         0.0934 
     87 H87        28.7499    2.1934   -3.5434 H         1 UNK         0.0934 
     88 H88        28.2480    0.1584   -4.8887 H         1 UNK         0.0739 
     89 H89        26.1645   -0.4711   -5.0295 H         1 UNK         0.3093 
     90 H90        23.0803    1.0332   -5.2792 H         1 UNK         0.0818 
     91 H91        22.5142   -0.2888   -7.3510 H         1 UNK         0.0819 
     92 H92        23.2746    1.2442   -7.7152 H         1 UNK         0.0819 
     93 H93        24.2116   -0.2375   -7.8260 H         1 UNK         0.0819 
     94 H94        24.0393   -1.6781   -5.7608 H         1 UNK         0.3041 
     95 H95        24.5505   -2.5217   -2.4331 H         1 UNK         0.0784 
     96 H96        22.0494   -2.6210   -2.3371 H         1 UNK         0.0793 
     97 H97        22.0055   -3.3278   -3.9461 H         1 UNK         0.0793 
     98 H98        22.7419   -4.2102   -2.6066 H         1 UNK         0.0793 
     99 H99        24.2466   -4.2721   -4.5935 H         1 UNK         0.3024 
    100 H100       25.9718   -5.1778   -5.6262 H         1 UNK         0.1171 
    101 H101       25.8504   -3.4309   -7.4362 H         1 UNK         0.0786 
    102 H102       27.2131   -4.5149   -7.6734 H         1 UNK         0.0786 
    103 H103       27.4787   -2.9001   -7.0223 H         1 UNK         0.0786 
    104 H104       28.7046   -4.0794   -5.3164 H         1 UNK         0.2977 
    105 H105       28.0022    3.5618   -5.2943 H         1 UNK         0.3127 
    106 H106       29.8774    3.7084   -7.3316 H         1 UNK         0.0770 
    107 H107       27.8177    5.7952   -6.4553 H         1 UNK         0.0814 
    108 H108       29.2530    6.1279   -7.4144 H         1 UNK         0.0814 
    109 H109       29.4240    5.5563   -5.7643 H         1 UNK         0.0814 
    110 H110       26.3458    3.6362   -7.6252 H         1 UNK         0.2983 
    111 H111       26.2639    4.3139  -10.4408 H         1 UNK         0.0947 
    112 H112       23.8459    3.6142  -10.1920 H         1 UNK         0.0806 
    113 H113       24.3452    4.8107   -9.0086 H         1 UNK         0.0806 
    114 H114       24.1863    3.1240   -8.5369 H         1 UNK         0.0806 
    115 H115       27.1837    1.4387   -8.8230 H         1 UNK         0.3000 
    116 H116       26.7708   -0.2286  -11.2733 H         1 UNK         0.0850 
    117 H117       27.0610   -2.1606   -9.6828 H         1 UNK         0.0810 
    118 H118       25.6421   -1.2046   -9.3222 H         1 UNK         0.0810 
    119 H119       27.0966   -1.0241   -8.3376 H         1 UNK         0.0810 
    120 H120       28.8096    1.8845  -10.6595 H         1 UNK         0.3040 
    121 H121       30.8939    2.3540  -11.1700 H         1 UNK         0.0766 
    122 H122       30.8617    0.6517  -12.9848 H         1 UNK         0.0812 
    123 H123       31.4245   -0.5817  -11.8580 H         1 UNK         0.0812 
    124 H124       32.4472    0.7885  -12.2403 H         1 UNK         0.0812 
    125 H125       31.2199    3.0320   -9.1413 H         1 UNK         0.3205 
    126 H126       32.2619    3.4031   -7.2472 H         1 UNK         0.0754 
    127 H127       34.4227    2.2879   -6.7350 H         1 UNK         0.0769 
    128 H128       34.3388    2.8057   -8.4110 H         1 UNK         0.0769 
    129 H129       34.1386    1.1049   -8.0006 H         1 UNK         0.0769 
    130 H130       32.2124   -0.1639   -7.3882 H         1 UNK         0.2981 
    131 H131       30.6669   -0.3370   -4.8804 H         1 UNK         0.0541 
    132 H132       29.9040   -2.7285   -7.9363 H         1 UNK         0.3459 
    133 H133       30.7086   -1.1987   -8.1103 H         1 UNK         0.3459 
    134 H134       33.3215   -1.8229   -5.2371 H         1 UNK         0.0612 
    135 H135       32.1985   -2.0733   -3.9278 H         1 UNK         0.0612 
    136 H136       33.7254    0.2078   -1.3207 H         1 UNK         0.0624 
    137 H137       33.8467   -1.4518   -1.8457 H         1 UNK         0.0624 
@<TRIPOS>BOND
     1    1    2 1    
     2    1   72 1    
     3    1   73 1    
     4    1   74 1    
     5    2    3 2    
     6    2    4 am   BACKBONE|DICT|INTERRES
     7    4    5 1    
     8    4   75 1    
     9    5    6 1    
    10    5   35 1    
    11    5   76 1    
    12    6    7 1    
    13    6   77 1    
    14    6   78 1    
    15    7    8 1    
    16    8    9 1    
    17    8   79 1    
    18    8   80 1    
    19    9   10 ar   
    20    9   14 ar   
    21   10   11 ar   
    22   10   81 1    
    23   11   12 ar   
    24   11   71 1    
    25   12   13 ar   
    26   12   82 1    
    27   13   14 ar   
    28   13   15 1    
    29   14   83 1    
    30   15   16 1    
    31   15   84 1    
    32   15   85 1    
    33   16   17 1    
    34   17   18 1    
    35   17   86 1    
    36   17   87 1    
    37   18   19 1    
    38   18   37 1    
    39   18   88 1    
    40   19   20 am   BACKBONE|DICT|INTERRES
    41   19   89 1    
    42   20   21 2    
    43   20   22 1    
    44   22   23 1    
    45   22   24 1    
    46   22   90 1    
    47   23   91 1    
    48   23   92 1    
    49   23   93 1    
    50   24   25 am   BACKBONE|DICT|INTERRES
    51   24   94 1    
    52   25   26 2    
    53   25   27 1    
    54   27   28 1    
    55   27   29 1    
    56   27   95 1    
    57   28   96 1    
    58   28   97 1    
    59   28   98 1    
    60   29   30 am   BACKBONE|DICT|INTERRES
    61   29   99 1    
    62   30   31 2    
    63   30   32 1    
    64   32   33 1    
    65   32   34 1    
    66   32  100 1    
    67   33  101 1    
    68   33  102 1    
    69   33  103 1    
    70   34   35 am   BACKBONE|DICT|INTERRES
    71   34  104 1    
    72   35   36 2    
    73   37   38 2    
    74   37   39 am   BACKBONE|DICT|INTERRES
    75   39   40 1    
    76   39  105 1    
    77   40   41 1    
    78   40   42 1    
    79   40  106 1    
    80   41  107 1    
    81   41  108 1    
    82   41  109 1    
    83   42   43 2    
    84   42   44 am   BACKBONE|DICT|INTERRES
    85   44   45 1    
    86   44  110 1    
    87   45   46 1    
    88   45   47 1    
    89   45  111 1    
    90   46  112 1    
    91   46  113 1    
    92   46  114 1    
    93   47   48 2    
    94   47   49 am   BACKBONE|DICT|INTERRES
    95   49   50 1    
    96   49  115 1    
    97   50   51 1    
    98   50   52 1    
    99   50  116 1    
   100   51  117 1    
   101   51  118 1    
   102   51  119 1    
   103   52   53 2    
   104   52   54 am   BACKBONE|DICT|INTERRES
   105   54   55 1    
   106   54  120 1    
   107   55   56 1    
   108   55   57 1    
   109   55  121 1    
   110   56  122 1    
   111   56  123 1    
   112   56  124 1    
   113   57   58 2    
   114   57   59 am   BACKBONE|DICT|INTERRES
   115   59   60 1    
   116   59  125 1    
   117   60   61 1    
   118   60   62 1    
   119   60  126 1    
   120   61  127 1    
   121   61  128 1    
   122   61  129 1    
   123   62   63 2    
   124   62   64 am   BACKBONE|DICT|INTERRES
   125   64   65 1    
   126   64  130 1    
   127   65   66 1    
   128   65   69 1    
   129   65  131 1    
   130   66   67 am   BACKBONE|DICT|INTERRES
   131   66   68 2    
   132   67  132 1    
   133   67  133 1    
   134   69   70 1    
   135   69  134 1    
   136   69  135 1    
   137   70   71 1    
   138   71  136 1    
   139   71  137 1    
@<TRIPOS>SUBSTRUCTURE
     1 UNK         1 GROUP             0       ****    0 ROOT    
