@<TRIPOS>MOLECULE
3R137
137   139    1
SMALL
USER_CHARGES


@<TRIPOS>ATOM
      1 CA         27.6742   -6.1196   -6.2208 C.3       0 UNK        -0.2020 
      2 C          27.2810   -5.4850   -4.8960 C.2       0 UNK         0.4855 
      3 O          26.1024   -5.2048   -4.6759 O.2       0 UNK        -0.5197 
      4 N          28.2607   -5.2536   -4.0122 N.am      1 UNK        -0.4892 
      5 CA         28.0732   -4.6607   -2.6835 C.3       1 UNK         0.0835 
      6 C6         29.3827   -4.7164   -1.8601 C.3       12 UNK        -0.0855 
      7 S7         29.1526   -4.2518   -0.1030 S.3       12 UNK        -0.2931 
      8 C8         30.7438   -3.4734    0.3355 C.3       12 UNK         0.0378 
      9 C9         31.0839   -2.2899   -0.5600 C.ar      12 UNK        -0.0802 
     10 C10        32.0431   -2.4361   -1.5639 C.ar      12 UNK        -0.0944 
     11 C11        32.3261   -1.3868   -2.4427 C.ar      12 UNK        -0.0787 
     12 C12        31.6871   -0.1559   -2.2591 C.ar      12 UNK        -0.0862 
     13 C13        30.7424    0.0180   -1.2390 C.ar      12 UNK        -0.0733 
     14 C14        30.4407   -1.0594   -0.3977 C.ar      12 UNK        -0.0832 
     15 C15        30.0566    1.3653   -1.0126 C.3       12 UNK         0.0240 
     16 S16        29.5517    2.2251   -2.5429 S.3       12 UNK        -0.2522 
     17 C17        28.3006    1.0812   -3.2070 C.3       12 UNK        -0.0967 
     18 CA         28.1236    1.2348   -4.7395 C.3       5 UNK         0.0660 
     19 N          27.7686   -0.0360   -5.3727 N.am      5 UNK        -0.4015 
     20 C          27.6707   -0.2424   -6.6935 C.2       4 UNK         0.4946 
     21 O          27.9347    0.6013   -7.5512 O.2       4 UNK        -0.5353 
     22 CA         27.1463   -1.6187   -7.1290 C.3       4 UNK         0.0277 
     23 CB         28.2884   -2.6451   -7.1707 C.3       4 UNK        -0.1981 
     24 N          26.0618   -2.0957   -6.2638 N.am      4 UNK        -0.4209 
     25 C          24.8552   -1.5129   -6.1874 C.2       3 UNK         0.4942 
     26 O          24.5072   -0.5637   -6.8886 O.2       3 UNK        -0.5208 
     27 CA         23.8963   -2.0356   -5.1065 C.3       3 UNK         0.0250 
     28 CB         23.2002   -3.3275   -5.5623 C.3       3 UNK        -0.1990 
     29 N          24.5711   -2.2488   -3.8234 N.am      3 UNK        -0.4232 
     30 C          25.0750   -1.2587   -3.0702 C.2       2 UNK         0.4993 
     31 O          24.9873   -0.0683   -3.3630 O.2       2 UNK        -0.5286 
     32 CA         25.8430   -1.6465   -1.7968 C.3       2 UNK         0.0209 
     33 CB         24.9022   -1.6567   -0.5823 C.3       2 UNK        -0.1931 
     34 N          26.5349   -2.9323   -1.8888 N.am      2 UNK        -0.4546 
     35 C          27.4941   -3.2310   -2.7756 C.2       1 UNK         0.5154 
     36 O          27.8991   -2.4465   -3.6394 O.2       1 UNK        -0.5181 
     37 C          27.1251    2.3567   -5.1006 C.2       5 UNK         0.5014 
     38 O          27.5457    3.4137   -5.5721 O.2       5 UNK        -0.5248 
     39 N          25.8214    2.0915   -4.9219 N.am      6 UNK        -0.4434 
     40 CA         24.7194    2.9997   -5.2569 C.3       6 UNK         0.0363 
     41 CB         23.3960    2.4172   -4.7363 C.3       6 UNK        -0.1936 
     42 C          24.6136    3.3089   -6.7596 C.2       6 UNK         0.5081 
     43 O          24.2997    4.4431   -7.1212 O.2       6 UNK        -0.5248 
     44 N          24.9036    2.3126   -7.6077 N.am      7 UNK        -0.4718 
     45 CA         24.9838    2.4554   -9.0650 C.3       7 UNK         0.0273 
     46 CB         24.9364    1.0588   -9.7070 C.3       7 UNK        -0.1935 
     47 C          26.2320    3.2207   -9.5478 C.2       7 UNK         0.5018 
     48 O          26.2861    3.5771  -10.7257 O.2       7 UNK        -0.5186 
     49 N          27.2077    3.4394   -8.6519 N.am      8 UNK        -0.4240 
     50 CA         28.5251    4.0392   -8.8885 C.3       8 UNK         0.0235 
     51 CB         28.3984    5.5235   -9.2936 C.3       8 UNK        -0.2000 
     52 C          29.3869    3.2117   -9.8623 C.2       8 UNK         0.4941 
     53 O          30.1321    3.7799  -10.6640 O.2       8 UNK        -0.5273 
     54 N          29.2715    1.8805   -9.7722 N.am      9 UNK        -0.4262 
     55 CA         30.0889    0.9226  -10.5134 C.3       9 UNK         0.0264 
     56 CB         29.3119   -0.4002  -10.6253 C.3       9 UNK        -0.1955 
     57 C          31.4341    0.7054   -9.8031 C.2       9 UNK         0.5031 
     58 O          31.5722    1.0335   -8.6205 O.2       9 UNK        -0.5390 
     59 N          32.3956    0.1011  -10.5131 N.am      10 UNK        -0.4204 
     60 CA         33.7238   -0.2711  -10.0059 C.3       10 UNK         0.0237 
     61 CB         34.6757   -0.4685  -11.2011 C.3       10 UNK        -0.1985 
     62 C          33.6793   -1.5004   -9.0701 C.2       10 UNK         0.4970 
     63 O          34.3971   -2.4769   -9.2945 O.2       10 UNK        -0.4914 
     64 N          32.8235   -1.4236   -8.0453 N.am      11 UNK        -0.4285 
     65 CA         32.4968   -2.4779   -7.0792 C.3       11 UNK         0.1007 
     66 C          31.8424   -3.7398   -7.7247 C.2       11 UNK         0.5703 
     67 N          31.7972   -4.8621   -7.0197 N.am      11 UNK        -0.7361 
     68 O          31.3257   -3.7000   -8.8400 O.2       11 UNK        -0.4986 
     69 C69        33.6899   -2.7780   -6.1234 C.3       12 UNK        -0.0947 
     70 S70        33.1142   -3.1764   -4.4423 S.3       12 UNK        -0.2240 
     71 C71        33.3136   -1.5714   -3.5920 C.3       12 UNK         0.0194 
     72 H72        27.0480   -5.7366   -7.0259 H         1 UNK         0.0906 
     73 H73        28.7140   -5.9128   -6.4732 H         1 UNK         0.0906 
     74 H74        27.5385   -7.1995   -6.1729 H         1 UNK         0.0906 
     75 H75        29.2135   -5.4759   -4.2622 H         1 UNK         0.3140 
     76 H76        27.3364   -5.2873   -2.1756 H         1 UNK         0.1085 
     77 H77        29.7884   -5.7292   -1.8755 H         1 UNK         0.0836 
     78 H78        30.1344   -4.0886   -2.3358 H         1 UNK         0.0836 
     79 H79        31.5306   -4.2283    0.2925 H         1 UNK         0.0731 
     80 H80        30.7000   -3.1410    1.3737 H         1 UNK         0.0731 
     81 H81        32.5430   -3.3872   -1.6857 H         1 UNK         0.1312 
     82 H82        31.9202    0.6693   -2.9179 H         1 UNK         0.1406 
     83 H83        29.7046   -0.9454    0.3867 H         1 UNK         0.1631 
     84 H84        30.7424    2.0114   -0.4635 H         1 UNK         0.0717 
     85 H85        29.1746    1.2460   -0.3812 H         1 UNK         0.0717 
     86 H86        28.6293    0.0675   -2.9745 H         1 UNK         0.0934 
     87 H87        27.3622    1.2199   -2.6671 H         1 UNK         0.0934 
     88 H88        29.0879    1.5117   -5.1722 H         1 UNK         0.0739 
     89 H89        27.5969   -0.8218   -4.7525 H         1 UNK         0.3093 
     90 H90        26.7497   -1.5125   -8.1408 H         1 UNK         0.0818 
     91 H91        27.9660   -3.5737   -7.6390 H         1 UNK         0.0819 
     92 H92        29.1273   -2.2698   -7.7567 H         1 UNK         0.0819 
     93 H93        28.6696   -2.8777   -6.1761 H         1 UNK         0.0819 
     94 H94        26.2743   -2.8514   -5.6262 H         1 UNK         0.3041 
     95 H95        23.1265   -1.2755   -4.9548 H         1 UNK         0.0784 
     96 H96        22.6589   -3.1674   -6.4958 H         1 UNK         0.0793 
     97 H97        23.9109   -4.1360   -5.7345 H         1 UNK         0.0793 
     98 H98        22.4754   -3.6696   -4.8234 H         1 UNK         0.0793 
     99 H99        24.7169   -3.2058   -3.5324 H         1 UNK         0.3024 
    100 H100       26.6029   -0.8807   -1.6306 H         1 UNK         0.1171 
    101 H101       24.3916   -0.6982   -0.4767 H         1 UNK         0.0786 
    102 H102       25.4506   -1.8322    0.3436 H         1 UNK         0.0786 
    103 H103       24.1348   -2.4268   -0.6709 H         1 UNK         0.0786 
    104 H104       26.2775   -3.6292   -1.2043 H         1 UNK         0.2977 
    105 H105       25.5543    1.2103   -4.4822 H         1 UNK         0.3127 
    106 H106       24.9037    3.9436   -4.7400 H         1 UNK         0.0770 
    107 H107       23.1786    1.4484   -5.1882 H         1 UNK         0.0814 
    108 H108       22.5598    3.0801   -4.9624 H         1 UNK         0.0814 
    109 H109       23.4203    2.2830   -3.6548 H         1 UNK         0.0814 
    110 H110       25.0789    1.3853   -7.2323 H         1 UNK         0.2983 
    111 H111       24.1104    3.0175   -9.4027 H         1 UNK         0.0947 
    112 H112       24.9526    1.1254  -10.7956 H         1 UNK         0.0806 
    113 H113       24.0276    0.5246   -9.4295 H         1 UNK         0.0806 
    114 H114       25.7890    0.4499   -9.4049 H         1 UNK         0.0806 
    115 H115       27.0628    3.0901   -7.7115 H         1 UNK         0.3000 
    116 H116       29.0443    4.0044   -7.9296 H         1 UNK         0.0850 
    117 H117       29.3772    6.0032   -9.3276 H         1 UNK         0.0810 
    118 H118       27.7912    6.0783   -8.5783 H         1 UNK         0.0810 
    119 H119       27.9469    5.6388  -10.2793 H         1 UNK         0.0810 
    120 H120       28.7013    1.4942   -9.0214 H         1 UNK         0.3040 
    121 H121       30.2788    1.3084  -11.5174 H         1 UNK         0.0766 
    122 H122       28.3484   -0.2529  -11.1138 H         1 UNK         0.0812 
    123 H123       29.1239   -0.8388   -9.6458 H         1 UNK         0.0812 
    124 H124       29.8624   -1.1372  -11.2112 H         1 UNK         0.0812 
    125 H125       32.1903   -0.1735  -11.4633 H         1 UNK         0.3205 
    126 H126       34.1095    0.5613   -9.4134 H         1 UNK         0.0754 
    127 H127       35.6889   -0.6902  -10.8626 H         1 UNK         0.0769 
    128 H128       34.7333    0.4299  -11.8159 H         1 UNK         0.0769 
    129 H129       34.3569   -1.2934  -11.8395 H         1 UNK         0.0769 
    130 H130       32.2691   -0.5732   -7.9810 H         1 UNK         0.2981 
    131 H131       31.6947   -2.0302   -6.4913 H         1 UNK         0.0541 
    132 H132       32.2060   -4.8989   -6.0981 H         1 UNK         0.3459 
    133 H133       31.3739   -5.6818   -7.4235 H         1 UNK         0.3459 
    134 H134       34.3610   -1.9201   -6.0569 H         1 UNK         0.0612 
    135 H135       34.3043   -3.5970   -6.5013 H         1 UNK         0.0612 
    136 H136       34.3325   -1.4901   -3.2120 H         1 UNK         0.0624 
    137 H137       33.1827   -0.7688   -4.3197 H         1 UNK         0.0624 
@<TRIPOS>BOND
     1    1    2 1    
     2    1   72 1    
     3    1   73 1    
     4    1   74 1    
     5    2    3 2    
     6    2    4 am   BACKBONE|DICT|INTERRES
     7    4    5 1    
     8    4   75 1    
     9    5    6 1    
    10    5   35 1    
    11    5   76 1    
    12    6    7 1    
    13    6   77 1    
    14    6   78 1    
    15    7    8 1    
    16    8    9 1    
    17    8   79 1    
    18    8   80 1    
    19    9   10 ar   
    20    9   14 ar   
    21   10   11 ar   
    22   10   81 1    
    23   11   12 ar   
    24   11   71 1    
    25   12   13 ar   
    26   12   82 1    
    27   13   14 ar   
    28   13   15 1    
    29   14   83 1    
    30   15   16 1    
    31   15   84 1    
    32   15   85 1    
    33   16   17 1    
    34   17   18 1    
    35   17   86 1    
    36   17   87 1    
    37   18   19 1    
    38   18   37 1    
    39   18   88 1    
    40   19   20 am   BACKBONE|DICT|INTERRES
    41   19   89 1    
    42   20   21 2    
    43   20   22 1    
    44   22   23 1    
    45   22   24 1    
    46   22   90 1    
    47   23   91 1    
    48   23   92 1    
    49   23   93 1    
    50   24   25 am   BACKBONE|DICT|INTERRES
    51   24   94 1    
    52   25   26 2    
    53   25   27 1    
    54   27   28 1    
    55   27   29 1    
    56   27   95 1    
    57   28   96 1    
    58   28   97 1    
    59   28   98 1    
    60   29   30 am   BACKBONE|DICT|INTERRES
    61   29   99 1    
    62   30   31 2    
    63   30   32 1    
    64   32   33 1    
    65   32   34 1    
    66   32  100 1    
    67   33  101 1    
    68   33  102 1    
    69   33  103 1    
    70   34   35 am   BACKBONE|DICT|INTERRES
    71   34  104 1    
    72   35   36 2    
    73   37   38 2    
    74   37   39 am   BACKBONE|DICT|INTERRES
    75   39   40 1    
    76   39  105 1    
    77   40   41 1    
    78   40   42 1    
    79   40  106 1    
    80   41  107 1    
    81   41  108 1    
    82   41  109 1    
    83   42   43 2    
    84   42   44 am   BACKBONE|DICT|INTERRES
    85   44   45 1    
    86   44  110 1    
    87   45   46 1    
    88   45   47 1    
    89   45  111 1    
    90   46  112 1    
    91   46  113 1    
    92   46  114 1    
    93   47   48 2    
    94   47   49 am   BACKBONE|DICT|INTERRES
    95   49   50 1    
    96   49  115 1    
    97   50   51 1    
    98   50   52 1    
    99   50  116 1    
   100   51  117 1    
   101   51  118 1    
   102   51  119 1    
   103   52   53 2    
   104   52   54 am   BACKBONE|DICT|INTERRES
   105   54   55 1    
   106   54  120 1    
   107   55   56 1    
   108   55   57 1    
   109   55  121 1    
   110   56  122 1    
   111   56  123 1    
   112   56  124 1    
   113   57   58 2    
   114   57   59 am   BACKBONE|DICT|INTERRES
   115   59   60 1    
   116   59  125 1    
   117   60   61 1    
   118   60   62 1    
   119   60  126 1    
   120   61  127 1    
   121   61  128 1    
   122   61  129 1    
   123   62   63 2    
   124   62   64 am   BACKBONE|DICT|INTERRES
   125   64   65 1    
   126   64  130 1    
   127   65   66 1    
   128   65   69 1    
   129   65  131 1    
   130   66   67 am   BACKBONE|DICT|INTERRES
   131   66   68 2    
   132   67  132 1    
   133   67  133 1    
   134   69   70 1    
   135   69  134 1    
   136   69  135 1    
   137   70   71 1    
   138   71  136 1    
   139   71  137 1    
@<TRIPOS>SUBSTRUCTURE
     1 UNK         1 GROUP             0       ****    0 ROOT    
