@<TRIPOS>MOLECULE
3R137
137   139    1
SMALL
USER_CHARGES


@<TRIPOS>ATOM
      1 CA         27.8645   -6.7056   -1.8368 C.3       0 UNK        -0.2020 
      2 C          27.2129   -5.8326   -0.7746 C.2       0 UNK         0.4855 
      3 O          26.1681   -6.1972   -0.2358 O.2       0 UNK        -0.5197 
      4 N          27.8240   -4.6798   -0.4711 N.am      1 UNK        -0.4892 
      5 CA         27.3320   -3.6783    0.4845 C.3       1 UNK         0.0835 
      6 C6         28.4397   -2.6606    0.8695 C.3       12 UNK        -0.0855 
      7 S7         29.0963   -1.6968   -0.5409 S.3       12 UNK        -0.2931 
      8 C8         30.6018   -2.6322   -0.9633 C.3       12 UNK         0.0378 
      9 C9         30.7936   -2.7204   -2.4705 C.ar      12 UNK        -0.0802 
     10 C10        31.9262   -2.1725   -3.0770 C.ar      12 UNK        -0.0944 
     11 C11        32.1132   -2.2701   -4.4609 C.ar      12 UNK        -0.0787 
     12 C12        31.1497   -2.9273   -5.2366 C.ar      12 UNK        -0.0862 
     13 C13        30.0131   -3.4900   -4.6422 C.ar      12 UNK        -0.0733 
     14 C14        29.8495   -3.3822   -3.2591 C.ar      12 UNK        -0.0832 
     15 C15        28.9986   -4.2543   -5.4920 C.3       12 UNK         0.0240 
     16 S16        27.2584   -3.9740   -4.9912 S.3       12 UNK        -0.2522 
     17 C17        26.4333   -3.8378   -6.6163 C.3       12 UNK        -0.0967 
     18 CA         26.2755   -2.4028   -7.1934 C.3       5 UNK         0.0660 
     19 N          25.1264   -1.6637   -6.6612 N.am      5 UNK        -0.4015 
     20 C          24.5738   -0.6194   -7.3019 C.2       4 UNK         0.4946 
     21 O          24.9685   -0.1981   -8.3904 O.2       4 UNK        -0.5353 
     22 CA         23.4047    0.0978   -6.6092 C.3       4 UNK         0.0277 
     23 CB         22.1081   -0.7179   -6.7400 C.3       4 UNK        -0.1981 
     24 N          23.6664    0.3897   -5.2002 N.am      4 UNK        -0.4209 
     25 C          24.6366    1.2009   -4.7531 C.2       3 UNK         0.4942 
     26 O          25.4080    1.8187   -5.4840 O.2       3 UNK        -0.5208 
     27 CA         24.7976    1.3131   -3.2278 C.3       3 UNK         0.0250 
     28 CB         23.9299    2.4552   -2.6759 C.3       3 UNK        -0.1990 
     29 N          24.4840    0.0683   -2.5190 N.am      3 UNK        -0.4232 
     30 C          25.1416   -1.0856   -2.6946 C.2       2 UNK         0.4993 
     31 O          26.0787   -1.2289   -3.4842 O.2       2 UNK        -0.5286 
     32 CA         24.6281   -2.2912   -1.9035 C.3       2 UNK         0.0209 
     33 CB         23.9045   -3.2764   -2.8374 C.3       2 UNK        -0.1931 
     34 N          25.7657   -2.9635   -1.2859 N.am      2 UNK        -0.4546 
     35 C          26.0363   -2.9688    0.0264 C.2       1 UNK         0.5154 
     36 O          25.3098   -2.4455    0.8738 O.2       1 UNK        -0.5181 
     37 C          27.5593   -1.5548   -7.1293 C.2       5 UNK         0.5014 
     38 O          28.3386   -1.5840   -8.0806 O.2       5 UNK        -0.5248 
     39 N          27.7383   -0.7925   -6.0386 N.am      6 UNK        -0.4434 
     40 CA         28.8561    0.1330   -5.8580 C.3       6 UNK         0.0363 
     41 CB         28.8262    0.7147   -4.4375 C.3       6 UNK        -0.1936 
     42 C          28.8752    1.2434   -6.9217 C.2       6 UNK         0.5081 
     43 O          29.9375    1.5292   -7.4733 O.2       6 UNK        -0.5248 
     44 N          27.7006    1.8099   -7.2338 N.am      7 UNK        -0.4718 
     45 CA         27.5088    2.7725   -8.3197 C.3       7 UNK         0.0273 
     46 CB         26.0929    3.3661   -8.2530 C.3       7 UNK        -0.1935 
     47 C          27.7808    2.1638   -9.7043 C.2       7 UNK         0.5018 
     48 O          28.4926    2.7817  -10.4959 O.2       7 UNK        -0.5186 
     49 N          27.2481    0.9588   -9.9618 N.am      8 UNK        -0.4240 
     50 CA         27.4527    0.2119  -11.2090 C.3       8 UNK         0.0235 
     51 CB         26.5502   -1.0316  -11.2277 C.3       8 UNK        -0.2000 
     52 C          28.9216   -0.1795  -11.4502 C.2       8 UNK         0.4941 
     53 O          29.3971   -0.0758  -12.5814 O.2       8 UNK        -0.5273 
     54 N          29.6192   -0.5914  -10.3832 N.am      9 UNK        -0.4262 
     55 CA         31.0506   -0.9033  -10.3836 C.3       9 UNK         0.0264 
     56 CB         31.3821   -1.7131   -9.1176 C.3       9 UNK        -0.1955 
     57 C          31.9569    0.3396  -10.4608 C.2       9 UNK         0.5031 
     58 O          33.1474    0.1827  -10.7364 O.2       9 UNK        -0.5390 
     59 N          31.3994    1.5298  -10.1844 N.am      10 UNK        -0.4204 
     60 CA         32.0829    2.8164  -10.0011 C.3       10 UNK         0.0237 
     61 CB         32.6980    3.3156  -11.3259 C.3       10 UNK        -0.1985 
     62 C          33.0918    2.7614   -8.8364 C.2       10 UNK         0.4970 
     63 O          34.2309    3.2119   -8.9752 O.2       10 UNK        -0.4914 
     64 N          32.6511    2.1678   -7.7206 N.am      11 UNK        -0.4285 
     65 CA         33.4317    1.9456   -6.5004 C.3       11 UNK         0.1007 
     66 C          33.8271    3.2680   -5.7856 C.2       11 UNK         0.5703 
     67 N          34.9958    3.3116   -5.1602 N.am      11 UNK        -0.7361 
     68 O          33.0720    4.2389   -5.7639 O.2       11 UNK        -0.4986 
     69 C69        32.6817    0.9737   -5.5492 C.3       12 UNK        -0.0947 
     70 S70        33.8270   -0.0468   -4.5680 S.3       12 UNK        -0.2240 
     71 C71        33.3875   -1.7336   -5.1097 C.3       12 UNK         0.0194 
     72 H72        27.2410   -6.7349   -2.7302 H         1 UNK         0.0906 
     73 H73        28.8498   -6.3380   -2.1227 H         1 UNK         0.0906 
     74 H74        27.9797   -7.7243   -1.4676 H         1 UNK         0.0906 
     75 H75        28.6935   -4.4437   -0.9225 H         1 UNK         0.3140 
     76 H76        27.0629   -4.2190    1.3950 H         1 UNK         0.1085 
     77 H77        28.0586   -1.9552    1.6108 H         1 UNK         0.0836 
     78 H78        29.2602   -3.1778    1.3695 H         1 UNK         0.0836 
     79 H79        31.4573   -2.1518   -0.4858 H         1 UNK         0.0731 
     80 H80        30.5566   -3.6440   -0.5593 H         1 UNK         0.0731 
     81 H81        32.6728   -1.6797   -2.4695 H         1 UNK         0.1312 
     82 H82        31.2957   -3.0217   -6.3039 H         1 UNK         0.1406 
     83 H83        28.9751   -3.8111   -2.7967 H         1 UNK         0.1631 
     84 H84        29.1289   -3.9839   -6.5406 H         1 UNK         0.0717 
     85 H85        29.2139   -5.3211   -5.4231 H         1 UNK         0.0717 
     86 H86        26.9801   -4.4556   -7.3309 H         1 UNK         0.0934 
     87 H87        25.4532   -4.3105   -6.5362 H         1 UNK         0.0934 
     88 H88        26.0689   -2.5453   -8.2565 H         1 UNK         0.0739 
     89 H89        24.8004   -1.9203   -5.7411 H         1 UNK         0.3093 
     90 H90        23.2579    1.0519   -7.1205 H         1 UNK         0.0818 
     91 H91        21.2536   -0.1702   -6.3422 H         1 UNK         0.0819 
     92 H92        21.8902   -0.9367   -7.7864 H         1 UNK         0.0819 
     93 H93        22.1703   -1.6714   -6.2141 H         1 UNK         0.0819 
     94 H94        23.0768   -0.0666   -4.5202 H         1 UNK         0.3041 
     95 H95        25.8435    1.5520   -3.0254 H         1 UNK         0.0784 
     96 H96        24.1620    3.3966   -3.1763 H         1 UNK         0.0793 
     97 H97        22.8659    2.2634   -2.8205 H         1 UNK         0.0793 
     98 H98        24.1033    2.6067   -1.6103 H         1 UNK         0.0793 
     99 H99        23.7234    0.1058   -1.8553 H         1 UNK         0.3024 
    100 H100       23.9203   -1.9530   -1.1433 H         1 UNK         0.1171 
    101 H101       23.5382   -4.1430   -2.2865 H         1 UNK         0.0786 
    102 H102       23.0425   -2.8065   -3.3125 H         1 UNK         0.0786 
    103 H103       24.5582   -3.6406   -3.6306 H         1 UNK         0.0786 
    104 H104       26.4511   -3.3450   -1.9223 H         1 UNK         0.2977 
    105 H105       27.0831   -0.8780   -5.2668 H         1 UNK         0.3127 
    106 H106       29.7750   -0.4450   -5.9670 H         1 UNK         0.0770 
    107 H107       27.9124    1.2787   -4.2529 H         1 UNK         0.0814 
    108 H108       29.6660    1.3897   -4.2723 H         1 UNK         0.0814 
    109 H109       28.8911   -0.0750   -3.6875 H         1 UNK         0.0814 
    110 H110       26.8757    1.5676   -6.6898 H         1 UNK         0.2983 
    111 H111       28.2239    3.5847   -8.1715 H         1 UNK         0.0947 
    112 H112       25.9306    4.0847   -9.0575 H         1 UNK         0.0806 
    113 H113       25.9292    3.8910   -7.3118 H         1 UNK         0.0806 
    114 H114       25.3263    2.5953   -8.3415 H         1 UNK         0.0806 
    115 H115       26.6405    0.5333   -9.2671 H         1 UNK         0.3000 
    116 H116       27.1485    0.8627  -12.0315 H         1 UNK         0.0850 
    117 H117       26.6542   -1.5751  -12.1677 H         1 UNK         0.0810 
    118 H118       25.4992   -0.7613  -11.1236 H         1 UNK         0.0810 
    119 H119       26.7997   -1.7224  -10.4224 H         1 UNK         0.0810 
    120 H120       29.1263   -0.7344   -9.5020 H         1 UNK         0.3040 
    121 H121       31.2671   -1.5230  -11.2562 H         1 UNK         0.0766 
    122 H122       30.7999   -2.6336   -9.0714 H         1 UNK         0.0812 
    123 H123       31.1755   -1.1412   -8.2117 H         1 UNK         0.0812 
    124 H124       32.4358   -1.9941   -9.0937 H         1 UNK         0.0812 
    125 H125       30.4114    1.5366   -9.9628 H         1 UNK         0.3205 
    126 H126       31.3124    3.5299   -9.7049 H         1 UNK         0.0754 
    127 H127       33.1008    4.3228  -11.2128 H         1 UNK         0.0769 
    128 H128       31.9507    3.3525  -12.1186 H         1 UNK         0.0769 
    129 H129       33.5140    2.6758  -11.6632 H         1 UNK         0.0769 
    130 H130       31.6735    1.8826   -7.6781 H         1 UNK         0.2981 
    131 H131       34.3523    1.4614   -6.8332 H         1 UNK         0.0541 
    132 H132       35.6055    2.5088   -5.1466 H         1 UNK         0.3459 
    133 H133       35.2652    4.1556   -4.6797 H         1 UNK         0.3459 
    134 H134       32.0083    1.5071   -4.8765 H         1 UNK         0.0612 
    135 H135       32.0463    0.2987   -6.1234 H         1 UNK         0.0612 
    136 H136       34.2088   -2.4016   -4.8478 H         1 UNK         0.0624 
    137 H137       33.3136   -1.7522   -6.1983 H         1 UNK         0.0624 
@<TRIPOS>BOND
     1    1    2 1    
     2    1   72 1    
     3    1   73 1    
     4    1   74 1    
     5    2    3 2    
     6    2    4 am   BACKBONE|DICT|INTERRES
     7    4    5 1    
     8    4   75 1    
     9    5    6 1    
    10    5   35 1    
    11    5   76 1    
    12    6    7 1    
    13    6   77 1    
    14    6   78 1    
    15    7    8 1    
    16    8    9 1    
    17    8   79 1    
    18    8   80 1    
    19    9   10 ar   
    20    9   14 ar   
    21   10   11 ar   
    22   10   81 1    
    23   11   12 ar   
    24   11   71 1    
    25   12   13 ar   
    26   12   82 1    
    27   13   14 ar   
    28   13   15 1    
    29   14   83 1    
    30   15   16 1    
    31   15   84 1    
    32   15   85 1    
    33   16   17 1    
    34   17   18 1    
    35   17   86 1    
    36   17   87 1    
    37   18   19 1    
    38   18   37 1    
    39   18   88 1    
    40   19   20 am   BACKBONE|DICT|INTERRES
    41   19   89 1    
    42   20   21 2    
    43   20   22 1    
    44   22   23 1    
    45   22   24 1    
    46   22   90 1    
    47   23   91 1    
    48   23   92 1    
    49   23   93 1    
    50   24   25 am   BACKBONE|DICT|INTERRES
    51   24   94 1    
    52   25   26 2    
    53   25   27 1    
    54   27   28 1    
    55   27   29 1    
    56   27   95 1    
    57   28   96 1    
    58   28   97 1    
    59   28   98 1    
    60   29   30 am   BACKBONE|DICT|INTERRES
    61   29   99 1    
    62   30   31 2    
    63   30   32 1    
    64   32   33 1    
    65   32   34 1    
    66   32  100 1    
    67   33  101 1    
    68   33  102 1    
    69   33  103 1    
    70   34   35 am   BACKBONE|DICT|INTERRES
    71   34  104 1    
    72   35   36 2    
    73   37   38 2    
    74   37   39 am   BACKBONE|DICT|INTERRES
    75   39   40 1    
    76   39  105 1    
    77   40   41 1    
    78   40   42 1    
    79   40  106 1    
    80   41  107 1    
    81   41  108 1    
    82   41  109 1    
    83   42   43 2    
    84   42   44 am   BACKBONE|DICT|INTERRES
    85   44   45 1    
    86   44  110 1    
    87   45   46 1    
    88   45   47 1    
    89   45  111 1    
    90   46  112 1    
    91   46  113 1    
    92   46  114 1    
    93   47   48 2    
    94   47   49 am   BACKBONE|DICT|INTERRES
    95   49   50 1    
    96   49  115 1    
    97   50   51 1    
    98   50   52 1    
    99   50  116 1    
   100   51  117 1    
   101   51  118 1    
   102   51  119 1    
   103   52   53 2    
   104   52   54 am   BACKBONE|DICT|INTERRES
   105   54   55 1    
   106   54  120 1    
   107   55   56 1    
   108   55   57 1    
   109   55  121 1    
   110   56  122 1    
   111   56  123 1    
   112   56  124 1    
   113   57   58 2    
   114   57   59 am   BACKBONE|DICT|INTERRES
   115   59   60 1    
   116   59  125 1    
   117   60   61 1    
   118   60   62 1    
   119   60  126 1    
   120   61  127 1    
   121   61  128 1    
   122   61  129 1    
   123   62   63 2    
   124   62   64 am   BACKBONE|DICT|INTERRES
   125   64   65 1    
   126   64  130 1    
   127   65   66 1    
   128   65   69 1    
   129   65  131 1    
   130   66   67 am   BACKBONE|DICT|INTERRES
   131   66   68 2    
   132   67  132 1    
   133   67  133 1    
   134   69   70 1    
   135   69  134 1    
   136   69  135 1    
   137   70   71 1    
   138   71  136 1    
   139   71  137 1    
@<TRIPOS>SUBSTRUCTURE
     1 UNK         1 GROUP             0       ****    0 ROOT    
