@<TRIPOS>MOLECULE
3R137
137   139    1
SMALL
USER_CHARGES


@<TRIPOS>ATOM
      1 CA         23.3000   -2.3360   -1.2268 C.3       0 UNK        -0.2020 
      2 C          24.7415   -2.2422   -1.7034 C.2       0 UNK         0.4855 
      3 O          25.0275   -2.6476   -2.8276 O.2       0 UNK        -0.5197 
      4 N          25.6287   -1.7027   -0.8554 N.am      1 UNK        -0.4892 
      5 CA         27.0691   -1.4916   -1.0570 C.3       1 UNK         0.0835 
      6 C6         27.9093   -2.7912   -0.9376 C.3       12 UNK        -0.0855 
      7 S7         29.5682   -2.4265   -0.2605 S.3       12 UNK        -0.2931 
      8 C8         30.5130   -3.9242   -0.6793 C.3       12 UNK         0.0378 
      9 C9         30.8485   -3.9891   -2.1616 C.ar      12 UNK        -0.0802 
     10 C10        31.9130   -3.2455   -2.6809 C.ar      12 UNK        -0.0944 
     11 C11        32.2278   -3.3143   -4.0413 C.ar      12 UNK        -0.0787 
     12 C12        31.4511   -4.1146   -4.8854 C.ar      12 UNK        -0.0862 
     13 C13        30.3857   -4.8689   -4.3807 C.ar      12 UNK        -0.0733 
     14 C14        30.1057   -4.8130   -3.0099 C.ar      12 UNK        -0.0832 
     15 C15        29.5933   -5.7564   -5.3424 C.3       12 UNK         0.0240 
     16 S16        27.9134   -6.2422   -4.7988 S.3       12 UNK        -0.2522 
     17 C17        27.0737   -4.6397   -4.5542 C.3       12 UNK        -0.0967 
     18 CA         26.3981   -4.1038   -5.8400 C.3       5 UNK         0.0660 
     19 N          25.2357   -3.2658   -5.5452 N.am      5 UNK        -0.4015 
     20 C          24.2737   -2.9820   -6.4327 C.2       4 UNK         0.4946 
     21 O          24.2836   -3.3613   -7.6045 O.2       4 UNK        -0.5353 
     22 CA         23.0790   -2.1609   -5.9283 C.3       4 UNK         0.0277 
     23 CB         22.1529   -3.0229   -5.0532 C.3       4 UNK        -0.1981 
     24 N          23.4534   -0.9474   -5.2019 N.am      4 UNK        -0.4209 
     25 C          24.0328    0.1268   -5.7543 C.2       3 UNK         0.4942 
     26 O          24.4507    0.1686   -6.9111 O.2       3 UNK        -0.5208 
     27 CA         24.1051    1.3902   -4.8817 C.3       3 UNK         0.0250 
     28 CB         22.8246    1.6196   -4.0545 C.3       3 UNK        -0.1990 
     29 N          25.2605    1.3811   -3.9907 N.am      3 UNK        -0.4232 
     30 C          26.5274    1.5777   -4.3745 C.2       2 UNK         0.4993 
     31 O          26.8822    1.7443   -5.5403 O.2       2 UNK        -0.5286 
     32 CA         27.5790    1.6209   -3.2560 C.3       2 UNK         0.0209 
     33 CB         27.6670    3.0364   -2.6634 C.3       2 UNK        -0.1931 
     34 N          27.3200    0.6573   -2.1851 N.am      2 UNK        -0.4546 
     35 C          27.3756   -0.6742   -2.3318 C.2       1 UNK         0.5154 
     36 O          27.6236   -1.2359   -3.4030 O.2       1 UNK        -0.5181 
     37 C          27.3998   -3.3616   -6.7387 C.2       5 UNK         0.5014 
     38 O          27.7160   -3.8438   -7.8278 O.2       5 UNK        -0.5248 
     39 N          27.8912   -2.2104   -6.2607 N.am      6 UNK        -0.4434 
     40 CA         28.9502   -1.4485   -6.9226 C.3       6 UNK         0.0363 
     41 CB         29.6628   -0.5775   -5.8854 C.3       6 UNK        -0.1936 
     42 C          28.4784   -0.5987   -8.1143 C.2       6 UNK         0.5081 
     43 O          29.3305    0.0026   -8.7642 O.2       6 UNK        -0.5248 
     44 N          27.1650   -0.5456   -8.3843 N.am      7 UNK        -0.4718 
     45 CA         26.5260    0.1444   -9.5137 C.3       7 UNK         0.0273 
     46 CB         26.8642   -0.5716  -10.8391 C.3       7 UNK        -0.1935 
     47 C          26.8517    1.6502   -9.5445 C.2       7 UNK         0.5018 
     48 O          27.3913    2.1462  -10.5355 O.2       7 UNK        -0.5186 
     49 N          26.5330    2.3304   -8.4346 N.am      8 UNK        -0.4240 
     50 CA         26.8555    3.7283   -8.1227 C.3       8 UNK         0.0235 
     51 CB         26.2654    4.7103   -9.1590 C.3       8 UNK        -0.2000 
     52 C          28.3639    3.9187   -7.8736 C.2       8 UNK         0.4941 
     53 O          28.9929    4.7892   -8.4782 O.2       8 UNK        -0.5273 
     54 N          28.8941    3.0994   -6.9538 N.am      9 UNK        -0.4262 
     55 CA         30.2496    3.1292   -6.3900 C.3       9 UNK         0.0264 
     56 CB         30.4431    4.3994   -5.5338 C.3       9 UNK        -0.1955 
     57 C          31.3867    2.9362   -7.4147 C.2       9 UNK         0.5031 
     58 O          32.4791    3.4710   -7.2137 O.2       9 UNK        -0.5390 
     59 N          31.1546    2.1465   -8.4712 N.am      10 UNK        -0.4204 
     60 CA         32.1350    1.8406   -9.5170 C.3       10 UNK         0.0237 
     61 CB         31.3997    1.6669  -10.8601 C.3       10 UNK        -0.1985 
     62 C          33.0047    0.6214   -9.1467 C.2       10 UNK         0.4970 
     63 O          33.2079   -0.2650   -9.9790 O.2       10 UNK        -0.4914 
     64 N          33.5060    0.5947   -7.9052 N.am      11 UNK        -0.4285 
     65 CA         34.4551   -0.4085   -7.4009 C.3       11 UNK         0.1007 
     66 C          35.8507   -0.2792   -8.0710 C.2       11 UNK         0.5703 
     67 N          36.5504   -1.3889   -8.2659 N.am      11 UNK        -0.7361 
     68 O          36.3200    0.8160   -8.3773 O.2       11 UNK        -0.4986 
     69 C69        34.5824   -0.3472   -5.8560 C.3       12 UNK        -0.0947 
     70 S70        33.0436   -0.8404   -5.0118 S.3       12 UNK        -0.2240 
     71 C71        33.4343   -2.5656   -4.5916 C.3       12 UNK         0.0194 
     72 H72        22.9559   -3.3685   -1.2823 H         1 UNK         0.0906 
     73 H73        22.6534   -1.7281   -1.8584 H         1 UNK         0.0906 
     74 H74        23.1853   -1.9970   -0.1974 H         1 UNK         0.0906 
     75 H75        25.2875   -1.3850    0.0418 H         1 UNK         0.3140 
     76 H76        27.3513   -0.8592   -0.2130 H         1 UNK         0.1085 
     77 H77        27.9831   -3.3134   -1.8906 H         1 UNK         0.0836 
     78 H78        27.4278   -3.4900   -0.2519 H         1 UNK         0.0836 
     79 H79        31.4378   -3.9290   -0.1004 H         1 UNK         0.0731 
     80 H80        29.9541   -4.8072   -0.3647 H         1 UNK         0.0731 
     81 H81        32.5025   -2.6205   -2.0239 H         1 UNK         0.1312 
     82 H82        31.6909   -4.1656   -5.9389 H         1 UNK         0.1406 
     83 H83        29.3017   -5.4037   -2.5944 H         1 UNK         0.1631 
     84 H84        30.1677   -6.6686   -5.5082 H         1 UNK         0.0717 
     85 H85        29.5179   -5.2701   -6.3150 H         1 UNK         0.0717 
     86 H86        26.3162   -4.8176   -3.7892 H         1 UNK         0.0934 
     87 H87        27.7510   -3.9062   -4.1167 H         1 UNK         0.0934 
     88 H88        26.0270   -4.9627   -6.4043 H         1 UNK         0.0739 
     89 H89        25.1487   -2.9280   -4.5856 H         1 UNK         0.3093 
     90 H90        22.5086   -1.8493   -6.8063 H         1 UNK         0.0818 
     91 H91        21.8362   -3.9194   -5.5880 H         1 UNK         0.0819 
     92 H92        22.6454   -3.3496   -4.1368 H         1 UNK         0.0819 
     93 H93        21.2500   -2.4795   -4.7742 H         1 UNK         0.0819 
     94 H94        23.1755   -0.8978   -4.2341 H         1 UNK         0.3041 
     95 H95        24.2088    2.2386   -5.5622 H         1 UNK         0.0784 
     96 H96        21.9356    1.5689   -4.6852 H         1 UNK         0.0793 
     97 H97        22.7055    0.8867   -3.2559 H         1 UNK         0.0793 
     98 H98        22.8311    2.6076   -3.5935 H         1 UNK         0.0793 
     99 H99        25.0815    1.2345   -3.0087 H         1 UNK         0.3024 
    100 H100       28.5486    1.3825   -3.6942 H         1 UNK         0.1171 
    101 H101       27.8274    3.7789   -3.4458 H         1 UNK         0.0786 
    102 H102       26.7527    3.3149   -2.1379 H         1 UNK         0.0786 
    103 H103       28.4974    3.1219   -1.9623 H         1 UNK         0.0786 
    104 H104       27.1009    1.0394   -1.2762 H         1 UNK         0.2977 
    105 H105       27.6055   -1.8854   -5.3400 H         1 UNK         0.3127 
    106 H106       29.6856   -2.1560   -7.3121 H         1 UNK         0.0770 
    107 H107       30.5309   -0.0861   -6.3242 H         1 UNK         0.0814 
    108 H108       29.0019    0.1966   -5.5087 H         1 UNK         0.0814 
    109 H109       30.0117   -1.1681   -5.0376 H         1 UNK         0.0814 
    110 H110       26.5344   -1.0186   -7.7509 H         1 UNK         0.2983 
    111 H111       25.4483    0.0624   -9.3653 H         1 UNK         0.0947 
    112 H112       27.9282   -0.5140  -11.0718 H         1 UNK         0.0806 
    113 H113       26.3244   -0.1222  -11.6734 H         1 UNK         0.0806 
    114 H114       26.5859   -1.6248  -10.8017 H         1 UNK         0.0806 
    115 H115       26.1492    1.7975   -7.6600 H         1 UNK         0.3000 
    116 H116       26.3649    3.9404   -7.1713 H         1 UNK         0.0850 
    117 H117       26.3883    5.7414   -8.8255 H         1 UNK         0.0810 
    118 H118       25.1986    4.5411   -9.3042 H         1 UNK         0.0810 
    119 H119       26.7550    4.6286  -10.1295 H         1 UNK         0.0810 
    120 H120       28.2487    2.4440   -6.5137 H         1 UNK         0.3040 
    121 H121       30.3129    2.2775   -5.7133 H         1 UNK         0.0766 
    122 H122       31.3829    4.3626   -4.9815 H         1 UNK         0.0812 
    123 H123       29.6457    4.5131   -4.8010 H         1 UNK         0.0812 
    124 H124       30.4628    5.2995   -6.1491 H         1 UNK         0.0812 
    125 H125       30.2772    1.6331   -8.5346 H         1 UNK         0.3205 
    126 H126       32.8144    2.6879   -9.6308 H         1 UNK         0.0754 
    127 H127       32.1067    1.5366  -11.6802 H         1 UNK         0.0769 
    128 H128       30.7897    2.5400  -11.0935 H         1 UNK         0.0769 
    129 H129       30.7435    0.7960  -10.8535 H         1 UNK         0.0769 
    130 H130       33.3310    1.3889   -7.3048 H         1 UNK         0.2981 
    131 H131       34.0570   -1.3900   -7.6668 H         1 UNK         0.0541 
    132 H132       37.4645   -1.3232   -8.6859 H         1 UNK         0.3459 
    133 H133       36.1815   -2.2915   -8.0099 H         1 UNK         0.3459 
    134 H134       34.8436    0.6625   -5.5341 H         1 UNK         0.0612 
    135 H135       35.3910   -0.9915   -5.5049 H         1 UNK         0.0612 
    136 H136       34.2441   -2.5812   -3.8607 H         1 UNK         0.0624 
    137 H137       33.8129   -3.0731   -5.4803 H         1 UNK         0.0624 
@<TRIPOS>BOND
     1    1    2 1    
     2    1   72 1    
     3    1   73 1    
     4    1   74 1    
     5    2    3 2    
     6    2    4 am   BACKBONE|DICT|INTERRES
     7    4    5 1    
     8    4   75 1    
     9    5    6 1    
    10    5   35 1    
    11    5   76 1    
    12    6    7 1    
    13    6   77 1    
    14    6   78 1    
    15    7    8 1    
    16    8    9 1    
    17    8   79 1    
    18    8   80 1    
    19    9   10 ar   
    20    9   14 ar   
    21   10   11 ar   
    22   10   81 1    
    23   11   12 ar   
    24   11   71 1    
    25   12   13 ar   
    26   12   82 1    
    27   13   14 ar   
    28   13   15 1    
    29   14   83 1    
    30   15   16 1    
    31   15   84 1    
    32   15   85 1    
    33   16   17 1    
    34   17   18 1    
    35   17   86 1    
    36   17   87 1    
    37   18   19 1    
    38   18   37 1    
    39   18   88 1    
    40   19   20 am   BACKBONE|DICT|INTERRES
    41   19   89 1    
    42   20   21 2    
    43   20   22 1    
    44   22   23 1    
    45   22   24 1    
    46   22   90 1    
    47   23   91 1    
    48   23   92 1    
    49   23   93 1    
    50   24   25 am   BACKBONE|DICT|INTERRES
    51   24   94 1    
    52   25   26 2    
    53   25   27 1    
    54   27   28 1    
    55   27   29 1    
    56   27   95 1    
    57   28   96 1    
    58   28   97 1    
    59   28   98 1    
    60   29   30 am   BACKBONE|DICT|INTERRES
    61   29   99 1    
    62   30   31 2    
    63   30   32 1    
    64   32   33 1    
    65   32   34 1    
    66   32  100 1    
    67   33  101 1    
    68   33  102 1    
    69   33  103 1    
    70   34   35 am   BACKBONE|DICT|INTERRES
    71   34  104 1    
    72   35   36 2    
    73   37   38 2    
    74   37   39 am   BACKBONE|DICT|INTERRES
    75   39   40 1    
    76   39  105 1    
    77   40   41 1    
    78   40   42 1    
    79   40  106 1    
    80   41  107 1    
    81   41  108 1    
    82   41  109 1    
    83   42   43 2    
    84   42   44 am   BACKBONE|DICT|INTERRES
    85   44   45 1    
    86   44  110 1    
    87   45   46 1    
    88   45   47 1    
    89   45  111 1    
    90   46  112 1    
    91   46  113 1    
    92   46  114 1    
    93   47   48 2    
    94   47   49 am   BACKBONE|DICT|INTERRES
    95   49   50 1    
    96   49  115 1    
    97   50   51 1    
    98   50   52 1    
    99   50  116 1    
   100   51  117 1    
   101   51  118 1    
   102   51  119 1    
   103   52   53 2    
   104   52   54 am   BACKBONE|DICT|INTERRES
   105   54   55 1    
   106   54  120 1    
   107   55   56 1    
   108   55   57 1    
   109   55  121 1    
   110   56  122 1    
   111   56  123 1    
   112   56  124 1    
   113   57   58 2    
   114   57   59 am   BACKBONE|DICT|INTERRES
   115   59   60 1    
   116   59  125 1    
   117   60   61 1    
   118   60   62 1    
   119   60  126 1    
   120   61  127 1    
   121   61  128 1    
   122   61  129 1    
   123   62   63 2    
   124   62   64 am   BACKBONE|DICT|INTERRES
   125   64   65 1    
   126   64  130 1    
   127   65   66 1    
   128   65   69 1    
   129   65  131 1    
   130   66   67 am   BACKBONE|DICT|INTERRES
   131   66   68 2    
   132   67  132 1    
   133   67  133 1    
   134   69   70 1    
   135   69  134 1    
   136   69  135 1    
   137   70   71 1    
   138   71  136 1    
   139   71  137 1    
@<TRIPOS>SUBSTRUCTURE
     1 UNK         1 GROUP             0       ****    0 ROOT    
