@<TRIPOS>MOLECULE
3R137
137   139    1
SMALL
USER_CHARGES


@<TRIPOS>ATOM
      1 CA         31.1702   -0.0720    1.2414 C.3       0 UNK        -0.2020 
      2 C          30.1851   -0.7186    0.2791 C.2       0 UNK         0.4855 
      3 O          29.7510   -0.0725   -0.6743 O.2       0 UNK        -0.5197 
      4 N          29.8375   -1.9892    0.5202 N.am      1 UNK        -0.4892 
      5 CA         28.9052   -2.7850   -0.2874 C.3       1 UNK         0.0835 
      6 C6         28.8780   -4.2729    0.1510 C.3       12 UNK        -0.0855 
      7 S7         30.5370   -5.0317    0.2375 S.3       12 UNK        -0.2931 
      8 C8         30.5524   -6.0944   -1.2443 C.3       12 UNK         0.0378 
      9 C9         30.4968   -5.3185   -2.5570 C.ar      12 UNK        -0.0802 
     10 C10        31.3114   -4.2009   -2.7697 C.ar      12 UNK        -0.0944 
     11 C11        31.2832   -3.5192   -3.9894 C.ar      12 UNK        -0.0787 
     12 C12        30.4320   -3.9617   -5.0062 C.ar      12 UNK        -0.0862 
     13 C13        29.6252   -5.0882   -4.8146 C.ar      12 UNK        -0.0733 
     14 C14        29.6620   -5.7597   -3.5880 C.ar      12 UNK        -0.0832 
     15 C15        28.7591   -5.6105   -5.9545 C.3       12 UNK         0.0240 
     16 S16        27.0065   -5.8221   -5.4998 S.3       12 UNK        -0.2522 
     17 C17        26.4969   -4.1206   -5.0963 C.3       12 UNK        -0.0967 
     18 CA         25.9716   -3.3440   -6.3344 C.3       5 UNK         0.0660 
     19 N          24.8235   -2.5020   -5.9974 N.am      5 UNK        -0.4015 
     20 C          23.8632   -2.1320   -6.8558 C.2       4 UNK         0.4946 
     21 O          23.7910   -2.5300   -8.0189 O.2       4 UNK        -0.5353 
     22 CA         22.7929   -1.1546   -6.3335 C.3       4 UNK         0.0277 
     23 CB         21.5373   -1.9225   -5.8889 C.3       4 UNK        -0.1981 
     24 N          23.2598   -0.3130   -5.2277 N.am      4 UNK        -0.4209 
     25 C          24.1687    0.6644   -5.3508 C.2       3 UNK         0.4942 
     26 O          24.6802    0.9933   -6.4199 O.2       3 UNK        -0.5208 
     27 CA         24.6251    1.3548   -4.0544 C.3       3 UNK         0.0250 
     28 CB         23.6887    2.5234   -3.7088 C.3       3 UNK        -0.1990 
     29 N          24.7354    0.4530   -2.9004 N.am      3 UNK        -0.4232 
     30 C          25.5151   -0.6357   -2.8472 C.2       2 UNK         0.4993 
     31 O          26.1748   -1.0600   -3.8004 O.2       2 UNK        -0.5286 
     32 CA         25.5254   -1.4150   -1.5320 C.3       2 UNK         0.0209 
     33 CB         24.4339   -2.4993   -1.5295 C.3       2 UNK        -0.1931 
     34 N          26.8381   -2.0367   -1.3854 N.am      2 UNK        -0.4546 
     35 C          27.4826   -2.1916   -0.2253 C.2       1 UNK         0.5154 
     36 O          26.9942   -1.9032    0.8712 O.2       1 UNK        -0.5181 
     37 C          27.0775   -2.4868   -6.9781 C.2       5 UNK         0.5014 
     38 O          27.6316   -2.8754   -8.0069 O.2       5 UNK        -0.5248 
     39 N          27.3635   -1.3327   -6.3566 N.am      6 UNK        -0.4434 
     40 CA         28.3405   -0.3367   -6.7978 C.3       6 UNK         0.0363 
     41 CB         28.4294    0.7667   -5.7305 C.3       6 UNK        -0.1936 
     42 C          28.0028    0.2551   -8.1780 C.2       6 UNK         0.5081 
     43 O          28.8862    0.3430   -9.0331 O.2       6 UNK        -0.5248 
     44 N          26.7262    0.6209   -8.3703 N.am      7 UNK        -0.4718 
     45 CA         26.1208    1.1294   -9.6049 C.3       7 UNK         0.0273 
     46 CB         25.9690   -0.0260  -10.6209 C.3       7 UNK        -0.1935 
     47 C          26.8494    2.3707  -10.1638 C.2       7 UNK         0.5018 
     48 O          27.3163    3.2059   -9.3858 O.2       7 UNK        -0.5186 
     49 N          26.9320    2.4782  -11.4967 N.am      8 UNK        -0.4240 
     50 CA         27.6576    3.5384  -12.2014 C.3       8 UNK         0.0235 
     51 CB         27.1579    3.6092  -13.6541 C.3       8 UNK        -0.2000 
     52 C          29.1867    3.3548  -12.1675 C.2       8 UNK         0.4941 
     53 O          29.9076    4.3337  -12.3645 O.2       8 UNK        -0.5273 
     54 N          29.6559    2.1183  -11.9400 N.am      9 UNK        -0.4262 
     55 CA         31.0763    1.7699  -11.8522 C.3       9 UNK         0.0264 
     56 CB         31.2386    0.2443  -11.9558 C.3       9 UNK        -0.1955 
     57 C          31.7372    2.3016  -10.5694 C.2       9 UNK         0.5031 
     58 O          32.8654    2.7924  -10.6389 O.2       9 UNK        -0.5390 
     59 N          31.0069    2.2025   -9.4480 N.am      10 UNK        -0.4204 
     60 CA         31.3708    2.5585   -8.0723 C.3       10 UNK         0.0237 
     61 CB         31.8490    4.0215   -7.9624 C.3       10 UNK        -0.1985 
     62 C          32.3782    1.5790   -7.4415 C.2       10 UNK         0.4970 
     63 O          33.1121    0.8830   -8.1463 O.2       10 UNK        -0.4914 
     64 N          32.3992    1.5543   -6.1034 N.am      11 UNK        -0.4285 
     65 CA         33.3599    0.7737   -5.3044 C.3       11 UNK         0.1007 
     66 C          34.7570    1.4466   -5.1557 C.2       11 UNK         0.5703 
     67 N          34.9550    2.6865   -5.5892 N.am      11 UNK        -0.7361 
     68 O          35.6861    0.8241   -4.6467 O.2       11 UNK        -0.4986 
     69 C69        32.7753    0.3811   -3.9213 C.3       12 UNK        -0.0947 
     70 S70        31.3481   -0.7479   -4.0434 S.3       12 UNK        -0.2240 
     71 C71        32.2118   -2.3376   -4.2203 C.3       12 UNK         0.0194 
     72 H72        30.7172    0.8003    1.7120 H         1 UNK         0.0906 
     73 H73        31.4831   -0.7581    2.0283 H         1 UNK         0.0906 
     74 H74        32.0597    0.2544    0.7030 H         1 UNK         0.0906 
     75 H75        30.2246   -2.4691    1.3203 H         1 UNK         0.3140 
     76 H76        29.2549   -2.7373   -1.3213 H         1 UNK         0.1085 
     77 H77        28.4253   -4.3710    1.1401 H         1 UNK         0.0836 
     78 H78        28.2488   -4.8556   -0.5249 H         1 UNK         0.0836 
     79 H79        31.4664   -6.6896   -1.2350 H         1 UNK         0.0731 
     80 H80        29.7249   -6.8024   -1.1747 H         1 UNK         0.0731 
     81 H81        31.9774   -3.8668   -1.9858 H         1 UNK         0.1312 
     82 H82        30.4178   -3.4402   -5.9539 H         1 UNK         0.1406 
     83 H83        29.0473   -6.6384   -3.4457 H         1 UNK         0.1631 
     84 H84        28.8260   -4.9599   -6.8267 H         1 UNK         0.0717 
     85 H85        29.1519   -6.5775   -6.2710 H         1 UNK         0.0717 
     86 H86        25.7025   -4.2230   -4.3557 H         1 UNK         0.0934 
     87 H87        27.2981   -3.5928   -4.5747 H         1 UNK         0.0934 
     88 H88        25.6385   -4.0655   -7.0842 H         1 UNK         0.0739 
     89 H89        24.8465   -2.0728   -5.0817 H         1 UNK         0.3093 
     90 H90        22.5178   -0.4998   -7.1634 H         1 UNK         0.0818 
     91 H91        20.7392   -1.2416   -5.5924 H         1 UNK         0.0819 
     92 H92        21.1489   -2.5381   -6.7017 H         1 UNK         0.0819 
     93 H93        21.7442   -2.5862   -5.0484 H         1 UNK         0.0819 
     94 H94        22.8844   -0.5080   -4.3108 H         1 UNK         0.3041 
     95 H95        25.6202    1.7638   -4.2392 H         1 UNK         0.0784 
     96 H96        23.6065    3.2181   -4.5462 H         1 UNK         0.0793 
     97 H97        22.6813    2.1797   -3.4706 H         1 UNK         0.0793 
     98 H98        24.0606    3.0920   -2.8561 H         1 UNK         0.0793 
     99 H99        24.2110    0.7153   -2.0776 H         1 UNK         0.3024 
    100 H100       25.3511   -0.7142   -0.7117 H         1 UNK         0.1171 
    101 H101       24.4335   -3.0556   -0.5919 H         1 UNK         0.0786 
    102 H102       23.4420   -2.0603   -1.6441 H         1 UNK         0.0786 
    103 H103       24.5721   -3.2150   -2.3406 H         1 UNK         0.0786 
    104 H104       27.3112   -2.2217   -2.2610 H         1 UNK         0.2977 
    105 H105       26.8843   -1.1308   -5.4810 H         1 UNK         0.3127 
    106 H106       29.3107   -0.8334   -6.8663 H         1 UNK         0.0770 
    107 H107       27.5196    1.3660   -5.6910 H         1 UNK         0.0814 
    108 H108       29.2572    1.4433   -5.9293 H         1 UNK         0.0814 
    109 H109       28.5924    0.3480   -4.7371 H         1 UNK         0.0814 
    110 H110       26.0913    0.5830   -7.5754 H         1 UNK         0.2983 
    111 H111       25.1201    1.4668   -9.3307 H         1 UNK         0.0947 
    112 H112       25.3588    0.2653  -11.4764 H         1 UNK         0.0806 
    113 H113       25.4738   -0.8828  -10.1622 H         1 UNK         0.0806 
    114 H114       26.9346   -0.3699  -10.9944 H         1 UNK         0.0806 
    115 H115       26.5064    1.7606  -12.0658 H         1 UNK         0.3000 
    116 H116       27.4333    4.4916  -11.7173 H         1 UNK         0.0850 
    117 H117       27.6571    4.4116  -14.1994 H         1 UNK         0.0810 
    118 H118       26.0871    3.8096  -13.6969 H         1 UNK         0.0810 
    119 H119       27.3492    2.6811  -14.1944 H         1 UNK         0.0810 
    120 H120       28.9929    1.3765  -11.7692 H         1 UNK         0.3040 
    121 H121       31.5895    2.2233  -12.7033 H         1 UNK         0.0766 
    122 H122       30.8490   -0.1337  -12.9011 H         1 UNK         0.0812 
    123 H123       30.7221   -0.2746  -11.1469 H         1 UNK         0.0812 
    124 H124       32.2909   -0.0387  -11.9031 H         1 UNK         0.0812 
    125 H125       30.1304    1.6886   -9.5178 H         1 UNK         0.3205 
    126 H126       30.4403    2.4782   -7.5129 H         1 UNK         0.0754 
    127 H127       31.9238    4.3329   -6.9201 H         1 UNK         0.0769 
    128 H128       31.1527    4.7028   -8.4520 H         1 UNK         0.0769 
    129 H129       32.8316    4.1662   -8.4125 H         1 UNK         0.0769 
    130 H130       31.7759    2.1523   -5.5820 H         1 UNK         0.2981 
    131 H131       33.5576   -0.1569   -5.8394 H         1 UNK         0.0541 
    132 H132       34.2073    3.2078   -6.0160 H         1 UNK         0.3459 
    133 H133       35.8677    3.1021   -5.4893 H         1 UNK         0.3459 
    134 H134       32.4587    1.2729   -3.3778 H         1 UNK         0.0612 
    135 H135       33.5304   -0.0953   -3.2932 H         1 UNK         0.0612 
    136 H136       33.0462   -2.3804   -3.5187 H         1 UNK         0.0624 
    137 H137       32.6467   -2.4003   -5.2187 H         1 UNK         0.0624 
@<TRIPOS>BOND
     1    1    2 1    
     2    1   72 1    
     3    1   73 1    
     4    1   74 1    
     5    2    3 2    
     6    2    4 am   BACKBONE|DICT|INTERRES
     7    4    5 1    
     8    4   75 1    
     9    5    6 1    
    10    5   35 1    
    11    5   76 1    
    12    6    7 1    
    13    6   77 1    
    14    6   78 1    
    15    7    8 1    
    16    8    9 1    
    17    8   79 1    
    18    8   80 1    
    19    9   10 ar   
    20    9   14 ar   
    21   10   11 ar   
    22   10   81 1    
    23   11   12 ar   
    24   11   71 1    
    25   12   13 ar   
    26   12   82 1    
    27   13   14 ar   
    28   13   15 1    
    29   14   83 1    
    30   15   16 1    
    31   15   84 1    
    32   15   85 1    
    33   16   17 1    
    34   17   18 1    
    35   17   86 1    
    36   17   87 1    
    37   18   19 1    
    38   18   37 1    
    39   18   88 1    
    40   19   20 am   BACKBONE|DICT|INTERRES
    41   19   89 1    
    42   20   21 2    
    43   20   22 1    
    44   22   23 1    
    45   22   24 1    
    46   22   90 1    
    47   23   91 1    
    48   23   92 1    
    49   23   93 1    
    50   24   25 am   BACKBONE|DICT|INTERRES
    51   24   94 1    
    52   25   26 2    
    53   25   27 1    
    54   27   28 1    
    55   27   29 1    
    56   27   95 1    
    57   28   96 1    
    58   28   97 1    
    59   28   98 1    
    60   29   30 am   BACKBONE|DICT|INTERRES
    61   29   99 1    
    62   30   31 2    
    63   30   32 1    
    64   32   33 1    
    65   32   34 1    
    66   32  100 1    
    67   33  101 1    
    68   33  102 1    
    69   33  103 1    
    70   34   35 am   BACKBONE|DICT|INTERRES
    71   34  104 1    
    72   35   36 2    
    73   37   38 2    
    74   37   39 am   BACKBONE|DICT|INTERRES
    75   39   40 1    
    76   39  105 1    
    77   40   41 1    
    78   40   42 1    
    79   40  106 1    
    80   41  107 1    
    81   41  108 1    
    82   41  109 1    
    83   42   43 2    
    84   42   44 am   BACKBONE|DICT|INTERRES
    85   44   45 1    
    86   44  110 1    
    87   45   46 1    
    88   45   47 1    
    89   45  111 1    
    90   46  112 1    
    91   46  113 1    
    92   46  114 1    
    93   47   48 2    
    94   47   49 am   BACKBONE|DICT|INTERRES
    95   49   50 1    
    96   49  115 1    
    97   50   51 1    
    98   50   52 1    
    99   50  116 1    
   100   51  117 1    
   101   51  118 1    
   102   51  119 1    
   103   52   53 2    
   104   52   54 am   BACKBONE|DICT|INTERRES
   105   54   55 1    
   106   54  120 1    
   107   55   56 1    
   108   55   57 1    
   109   55  121 1    
   110   56  122 1    
   111   56  123 1    
   112   56  124 1    
   113   57   58 2    
   114   57   59 am   BACKBONE|DICT|INTERRES
   115   59   60 1    
   116   59  125 1    
   117   60   61 1    
   118   60   62 1    
   119   60  126 1    
   120   61  127 1    
   121   61  128 1    
   122   61  129 1    
   123   62   63 2    
   124   62   64 am   BACKBONE|DICT|INTERRES
   125   64   65 1    
   126   64  130 1    
   127   65   66 1    
   128   65   69 1    
   129   65  131 1    
   130   66   67 am   BACKBONE|DICT|INTERRES
   131   66   68 2    
   132   67  132 1    
   133   67  133 1    
   134   69   70 1    
   135   69  134 1    
   136   69  135 1    
   137   70   71 1    
   138   71  136 1    
   139   71  137 1    
@<TRIPOS>SUBSTRUCTURE
     1 UNK         1 GROUP             0       ****    0 ROOT    
