@<TRIPOS>MOLECULE
3R137
137   139    1
SMALL
USER_CHARGES


@<TRIPOS>ATOM
      1 CA         26.0871   -4.8253   -8.4922 C.3       0 UNK        -0.2020 
      2 C          25.9933   -4.9054   -6.9757 C.2       0 UNK         0.4855 
      3 O          25.0098   -5.4288   -6.4514 O.2       0 UNK        -0.5197 
      4 N          27.0126   -4.4003   -6.2674 N.am      1 UNK        -0.4892 
      5 CA         27.1034   -4.4115   -4.8039 C.3       1 UNK         0.0835 
      6 C6         28.5113   -3.9795   -4.3268 C.3       12 UNK        -0.0855 
      7 S7         28.8529   -4.4646   -2.6046 S.3       12 UNK        -0.2931 
      8 C8         30.6566   -4.1875   -2.5102 C.3       12 UNK         0.0378 
      9 C9         31.0524   -2.7128   -2.5269 C.ar      12 UNK        -0.0802 
     10 C10        32.1313   -2.2821   -3.3063 C.ar      12 UNK        -0.0944 
     11 C11        32.5312   -0.9409   -3.2939 C.ar      12 UNK        -0.0787 
     12 C12        31.8327   -0.0252   -2.5010 C.ar      12 UNK        -0.0862 
     13 C13        30.7443   -0.4343   -1.7236 C.ar      12 UNK        -0.0733 
     14 C14        30.3774   -1.7850   -1.7278 C.ar      12 UNK        -0.0832 
     15 C15        30.0153    0.5804   -0.8442 C.3       12 UNK         0.0240 
     16 S16        28.2161    0.2907   -0.7134 S.3       12 UNK        -0.2522 
     17 C17        27.5357    1.1611   -2.1627 C.3       12 UNK        -0.0967 
     18 CA         27.4788    0.2778   -3.4535 C.3       5 UNK         0.0660 
     19 N          26.1601    0.3031   -4.0887 N.am      5 UNK        -0.4015 
     20 C          25.5644    1.3683   -4.6440 C.2       4 UNK         0.4946 
     21 O          26.0959    2.4793   -4.6955 O.2       4 UNK        -0.5353 
     22 CA         24.1518    1.1939   -5.2344 C.3       4 UNK         0.0277 
     23 CB         24.0018    1.9403   -6.5794 C.3       4 UNK        -0.1981 
     24 N          23.7171   -0.2083   -5.3416 N.am      4 UNK        -0.4209 
     25 C          22.4339   -0.5945   -5.4306 C.2       3 UNK         0.4942 
     26 O          21.4837    0.1882   -5.4758 O.2       3 UNK        -0.5208 
     27 CA         22.1457   -2.1093   -5.4560 C.3       3 UNK         0.0250 
     28 CB         22.2998   -2.6638   -6.8818 C.3       3 UNK        -0.1990 
     29 N          22.9903   -2.8837   -4.5445 N.am      3 UNK        -0.4232 
     30 C          23.0710   -2.7087   -3.2174 C.2       2 UNK         0.4993 
     31 O          22.3310   -1.9535   -2.5859 O.2       2 UNK        -0.5286 
     32 CA         24.1676   -3.4796   -2.4512 C.3       2 UNK         0.0209 
     33 CB         23.5348   -4.5372   -1.5305 C.3       2 UNK        -0.1931 
     34 N          25.2116   -4.1272   -3.2602 N.am      2 UNK        -0.4546 
     35 C          25.9961   -3.5421   -4.1759 C.2       1 UNK         0.5154 
     36 O          25.8595   -2.3737   -4.5443 O.2       1 UNK        -0.5181 
     37 C          28.5691    0.5416   -4.5168 C.2       5 UNK         0.5014 
     38 O          28.6016   -0.1591   -5.5344 O.2       5 UNK        -0.5248 
     39 N          29.4048    1.5646   -4.2966 N.am      6 UNK        -0.4434 
     40 CA         30.4960    2.0005   -5.1673 C.3       6 UNK         0.0363 
     41 CB         31.1838    3.2121   -4.5189 C.3       6 UNK        -0.1936 
     42 C          30.0647    2.3432   -6.6019 C.2       6 UNK         0.5081 
     43 O          30.8388    2.1190   -7.5331 O.2       6 UNK        -0.5248 
     44 N          28.8402    2.8652   -6.7559 N.am      7 UNK        -0.4718 
     45 CA         28.2536    3.2207   -8.0478 C.3       7 UNK         0.0273 
     46 CB         27.1055    4.2171   -7.8236 C.3       7 UNK        -0.1935 
     47 C          27.7633    2.0013   -8.8462 C.2       7 UNK         0.5018 
     48 O          27.7373    2.0700  -10.0750 O.2       7 UNK        -0.5186 
     49 N          27.3869    0.9162   -8.1535 N.am      8 UNK        -0.4240 
     50 CA         26.9378   -0.3305   -8.7780 C.3       8 UNK         0.0235 
     51 CB         25.9726   -1.0795   -7.8476 C.3       8 UNK        -0.2000 
     52 C          28.1235   -1.2260   -9.1482 C.2       8 UNK         0.4941 
     53 O          28.1484   -1.7729  -10.2505 O.2       8 UNK        -0.5273 
     54 N          29.0840   -1.3581   -8.2235 N.am      9 UNK        -0.4262 
     55 CA         30.2980   -2.1549   -8.4156 C.3       9 UNK         0.0264 
     56 CB         30.8237   -2.6013   -7.0437 C.3       9 UNK        -0.1955 
     57 C          31.3852   -1.4576   -9.2589 C.2       9 UNK         0.5031 
     58 O          32.3356   -2.1305   -9.6610 O.2       9 UNK        -0.5390 
     59 N          31.2213   -0.1523   -9.5297 N.am      10 UNK        -0.4204 
     60 CA         32.1083    0.7231  -10.3083 C.3       10 UNK         0.0237 
     61 CB         32.1743    0.2803  -11.7860 C.3       10 UNK        -0.1985 
     62 C          33.4919    0.8628   -9.6479 C.2       10 UNK         0.4970 
     63 O          34.5164    0.5559  -10.2615 O.2       10 UNK        -0.4914 
     64 N          33.4745    1.3108   -8.3910 N.am      11 UNK        -0.4285 
     65 CA         34.6339    1.4076   -7.4908 C.3       11 UNK         0.1007 
     66 C          34.6363    2.7046   -6.6343 C.2       11 UNK         0.5703 
     67 N          33.8766    3.7309   -6.9994 N.am      11 UNK        -0.7361 
     68 O          35.3580    2.8024   -5.6448 O.2       11 UNK        -0.4986 
     69 C69        34.8572    0.0971   -6.6796 C.3       12 UNK        -0.0947 
     70 S70        33.3410   -0.5437   -5.8956 S.3       12 UNK        -0.2240 
     71 C71        33.7267   -0.4867   -4.1240 C.3       12 UNK         0.0194 
     72 H72        26.1723   -5.8266   -8.9133 H         1 UNK         0.0906 
     73 H73        25.1896   -4.3624   -8.9016 H         1 UNK         0.0906 
     74 H74        26.9499   -4.2456   -8.8201 H         1 UNK         0.0906 
     75 H75        27.7760   -3.9502   -6.7497 H         1 UNK         0.3140 
     76 H76        26.9463   -5.4475   -4.4945 H         1 UNK         0.1085 
     77 H77        28.6696   -2.9054   -4.4505 H         1 UNK         0.0836 
     78 H78        29.2642   -4.4769   -4.9379 H         1 UNK         0.0836 
     79 H79        31.0270   -4.6307   -1.5850 H         1 UNK         0.0731 
     80 H80        31.1415   -4.7286   -3.3244 H         1 UNK         0.0731 
     81 H81        32.6716   -2.9907   -3.9192 H         1 UNK         0.1312 
     82 H82        32.1458    1.0085   -2.4812 H         1 UNK         0.1406 
     83 H83        29.5611   -2.1220   -1.1041 H         1 UNK         0.1631 
     84 H84        30.1927    1.5987   -1.1930 H         1 UNK         0.0717 
     85 H85        30.4423    0.5226    0.1577 H         1 UNK         0.0717 
     86 H86        26.5198    1.4244   -1.8628 H         1 UNK         0.0934 
     87 H87        28.0155    2.1309   -2.2904 H         1 UNK         0.0934 
     88 H88        27.6213   -0.7638   -3.1609 H         1 UNK         0.0739 
     89 H89        25.7424   -0.6195   -4.1666 H         1 UNK         0.3093 
     90 H90        23.4861    1.6777   -4.5164 H         1 UNK         0.0818 
     91 H91        23.0200    1.7902   -7.0274 H         1 UNK         0.0819 
     92 H92        24.1181    3.0149   -6.4355 H         1 UNK         0.0819 
     93 H93        24.7523    1.6354   -7.3061 H         1 UNK         0.0819 
     94 H94        24.4310   -0.9261   -5.3077 H         1 UNK         0.3041 
     95 H95        21.1096   -2.2522   -5.1423 H         1 UNK         0.0784 
     96 H96        21.6761   -2.1114   -7.5861 H         1 UNK         0.0793 
     97 H97        23.3298   -2.5961   -7.2339 H         1 UNK         0.0793 
     98 H98        21.9981   -3.7102   -6.9350 H         1 UNK         0.0793 
     99 H99        23.6395   -3.5320   -4.9691 H         1 UNK         0.3024 
    100 H100       24.6710   -2.7410   -1.8234 H         1 UNK         0.1171 
    101 H101       24.2807   -5.0005   -0.8842 H         1 UNK         0.0786 
    102 H102       23.0462   -5.3270   -2.1024 H         1 UNK         0.0786 
    103 H103       22.7806   -4.0927   -0.8792 H         1 UNK         0.0786 
    104 H104       25.3838   -5.0995   -3.0475 H         1 UNK         0.2977 
    105 H105       29.2784    2.0986   -3.4512 H         1 UNK         0.3127 
    106 H106       31.2091    1.1798   -5.2264 H         1 UNK         0.0770 
    107 H107       30.5042    4.0604   -4.4275 H         1 UNK         0.0814 
    108 H108       32.0329    3.5441   -5.1125 H         1 UNK         0.0814 
    109 H109       31.5632    2.9805   -3.5249 H         1 UNK         0.0814 
    110 H110       28.2604    2.9958   -5.9367 H         1 UNK         0.2983 
    111 H111       29.0192    3.7158   -8.6499 H         1 UNK         0.0947 
    112 H112       26.6424    4.5015   -8.7695 H         1 UNK         0.0806 
    113 H113       27.4626    5.1321   -7.3509 H         1 UNK         0.0806 
    114 H114       26.3245    3.7970   -7.1901 H         1 UNK         0.0806 
    115 H115       27.5115    0.9124   -7.1490 H         1 UNK         0.3000 
    116 H116       26.3972   -0.0999   -9.6990 H         1 UNK         0.0850 
    117 H117       26.4026   -1.2437   -6.8598 H         1 UNK         0.0810 
    118 H118       25.7143   -2.0529   -8.2605 H         1 UNK         0.0810 
    119 H119       25.0354   -0.5409   -7.7343 H         1 UNK         0.0810 
    120 H120       28.9723   -0.8964   -7.3233 H         1 UNK         0.3040 
    121 H121       30.0336   -3.0601   -8.9669 H         1 UNK         0.0766 
    122 H122       31.8433   -2.9843   -7.1049 H         1 UNK         0.0812 
    123 H123       30.2096   -3.4044   -6.6460 H         1 UNK         0.0812 
    124 H124       30.8147   -1.7876   -6.3185 H         1 UNK         0.0812 
    125 H125       30.4395    0.3134   -9.0897 H         1 UNK         0.3205 
    126 H126       31.6543    1.7152  -10.2864 H         1 UNK         0.0754 
    127 H127       32.7502    0.9917  -12.3790 H         1 UNK         0.0769 
    128 H128       31.1786    0.2220  -12.2258 H         1 UNK         0.0769 
    129 H129       32.6486   -0.6948  -11.9004 H         1 UNK         0.0769 
    130 H130       32.5766    1.5491   -7.9746 H         1 UNK         0.2981 
    131 H131       35.5215    1.5353   -8.1125 H         1 UNK         0.0541 
    132 H132       33.2948    3.6749   -7.8199 H         1 UNK         0.3459 
    133 H133       33.9025    4.5784   -6.4556 H         1 UNK         0.3459 
    134 H134       35.6468    0.2132   -5.9355 H         1 UNK         0.0612 
    135 H135       35.2118   -0.6801   -7.3579 H         1 UNK         0.0612 
    136 H136       34.5818   -1.1318   -3.9181 H         1 UNK         0.0624 
    137 H137       34.0244    0.5285   -3.8566 H         1 UNK         0.0624 
@<TRIPOS>BOND
     1    1    2 1    
     2    1   72 1    
     3    1   73 1    
     4    1   74 1    
     5    2    3 2    
     6    2    4 am   BACKBONE|DICT|INTERRES
     7    4    5 1    
     8    4   75 1    
     9    5    6 1    
    10    5   35 1    
    11    5   76 1    
    12    6    7 1    
    13    6   77 1    
    14    6   78 1    
    15    7    8 1    
    16    8    9 1    
    17    8   79 1    
    18    8   80 1    
    19    9   10 ar   
    20    9   14 ar   
    21   10   11 ar   
    22   10   81 1    
    23   11   12 ar   
    24   11   71 1    
    25   12   13 ar   
    26   12   82 1    
    27   13   14 ar   
    28   13   15 1    
    29   14   83 1    
    30   15   16 1    
    31   15   84 1    
    32   15   85 1    
    33   16   17 1    
    34   17   18 1    
    35   17   86 1    
    36   17   87 1    
    37   18   19 1    
    38   18   37 1    
    39   18   88 1    
    40   19   20 am   BACKBONE|DICT|INTERRES
    41   19   89 1    
    42   20   21 2    
    43   20   22 1    
    44   22   23 1    
    45   22   24 1    
    46   22   90 1    
    47   23   91 1    
    48   23   92 1    
    49   23   93 1    
    50   24   25 am   BACKBONE|DICT|INTERRES
    51   24   94 1    
    52   25   26 2    
    53   25   27 1    
    54   27   28 1    
    55   27   29 1    
    56   27   95 1    
    57   28   96 1    
    58   28   97 1    
    59   28   98 1    
    60   29   30 am   BACKBONE|DICT|INTERRES
    61   29   99 1    
    62   30   31 2    
    63   30   32 1    
    64   32   33 1    
    65   32   34 1    
    66   32  100 1    
    67   33  101 1    
    68   33  102 1    
    69   33  103 1    
    70   34   35 am   BACKBONE|DICT|INTERRES
    71   34  104 1    
    72   35   36 2    
    73   37   38 2    
    74   37   39 am   BACKBONE|DICT|INTERRES
    75   39   40 1    
    76   39  105 1    
    77   40   41 1    
    78   40   42 1    
    79   40  106 1    
    80   41  107 1    
    81   41  108 1    
    82   41  109 1    
    83   42   43 2    
    84   42   44 am   BACKBONE|DICT|INTERRES
    85   44   45 1    
    86   44  110 1    
    87   45   46 1    
    88   45   47 1    
    89   45  111 1    
    90   46  112 1    
    91   46  113 1    
    92   46  114 1    
    93   47   48 2    
    94   47   49 am   BACKBONE|DICT|INTERRES
    95   49   50 1    
    96   49  115 1    
    97   50   51 1    
    98   50   52 1    
    99   50  116 1    
   100   51  117 1    
   101   51  118 1    
   102   51  119 1    
   103   52   53 2    
   104   52   54 am   BACKBONE|DICT|INTERRES
   105   54   55 1    
   106   54  120 1    
   107   55   56 1    
   108   55   57 1    
   109   55  121 1    
   110   56  122 1    
   111   56  123 1    
   112   56  124 1    
   113   57   58 2    
   114   57   59 am   BACKBONE|DICT|INTERRES
   115   59   60 1    
   116   59  125 1    
   117   60   61 1    
   118   60   62 1    
   119   60  126 1    
   120   61  127 1    
   121   61  128 1    
   122   61  129 1    
   123   62   63 2    
   124   62   64 am   BACKBONE|DICT|INTERRES
   125   64   65 1    
   126   64  130 1    
   127   65   66 1    
   128   65   69 1    
   129   65  131 1    
   130   66   67 am   BACKBONE|DICT|INTERRES
   131   66   68 2    
   132   67  132 1    
   133   67  133 1    
   134   69   70 1    
   135   69  134 1    
   136   69  135 1    
   137   70   71 1    
   138   71  136 1    
   139   71  137 1    
@<TRIPOS>SUBSTRUCTURE
     1 UNK         1 GROUP             0       ****    0 ROOT    
