@<TRIPOS>MOLECULE
3R137
137   139    1
SMALL
USER_CHARGES


@<TRIPOS>ATOM
      1 CA         30.3146   -4.6229   -1.3265 C.3       0 UNK        -0.2020 
      2 C          29.4096   -3.5885   -0.6751 C.2       0 UNK         0.4855 
      3 O          28.9217   -3.8085    0.4334 O.2       0 UNK        -0.5197 
      4 N          29.1816   -2.4608   -1.3604 N.am      1 UNK        -0.4892 
      5 CA         28.3138   -1.3631   -0.9178 C.3       1 UNK         0.0835 
      6 C6         28.4667   -0.0787   -1.7810 C.3       12 UNK        -0.0855 
      7 S7         30.0458    0.8570   -1.7748 S.3       12 UNK        -0.2931 
      8 C8         31.4255   -0.3417   -1.7080 C.3       12 UNK         0.0378 
      9 C9         31.5590   -1.3121   -2.8854 C.ar      12 UNK        -0.0802 
     10 C10        32.5756   -2.2698   -2.8309 C.ar      12 UNK        -0.0944 
     11 C11        32.7099   -3.2329   -3.8344 C.ar      12 UNK        -0.0787 
     12 C12        31.8001   -3.2560   -4.8935 C.ar      12 UNK        -0.0862 
     13 C13        30.7868   -2.2985   -4.9702 C.ar      12 UNK        -0.0733 
     14 C14        30.6904   -1.3145   -3.9847 C.ar      12 UNK        -0.0832 
     15 C15        29.8060   -2.3069   -6.1286 C.3       12 UNK         0.0240 
     16 S16        28.1765   -2.9472   -5.6256 S.3       12 UNK        -0.2522 
     17 C17        27.3801   -3.0685   -7.2666 C.3       12 UNK        -0.0967 
     18 CA         26.4274   -1.9169   -7.6882 C.3       5 UNK         0.0660 
     19 N          25.0705   -2.0606   -7.1531 N.am      5 UNK        -0.4015 
     20 C          23.9650   -1.8083   -7.8730 C.2       4 UNK         0.4946 
     21 O          23.9795   -1.4695   -9.0572 O.2       4 UNK        -0.5353 
     22 CA         22.6035   -1.9517   -7.1715 C.3       4 UNK         0.0277 
     23 CB         22.0987   -3.4005   -7.2694 C.3       4 UNK        -0.1981 
     24 N          22.6139   -1.5344   -5.7705 N.am      4 UNK        -0.4209 
     25 C          22.8586   -0.2887   -5.3405 C.2       3 UNK         0.4942 
     26 O          23.0923    0.6654   -6.0825 O.2       3 UNK        -0.5208 
     27 CA         22.8926   -0.0892   -3.8150 C.3       3 UNK         0.0250 
     28 CB         21.4865    0.2333   -3.2845 C.3       3 UNK        -0.1990 
     29 N          23.4501   -1.2268   -3.0698 N.am      3 UNK        -0.4232 
     30 C          24.6653   -1.7538   -3.2736 C.2       2 UNK         0.4993 
     31 O          25.4266   -1.3953   -4.1769 O.2       2 UNK        -0.5286 
     32 CA         25.1003   -2.8931   -2.3422 C.3       2 UNK         0.0209 
     33 CB         25.0277   -4.2423   -3.0753 C.3       2 UNK        -0.1931 
     34 N          26.4763   -2.6486   -1.9202 N.am      2 UNK        -0.4546 
     35 C          26.8271   -1.7793   -0.9614 C.2       1 UNK         0.5154 
     36 O          26.0277   -1.2717   -0.1730 O.2       1 UNK        -0.5181 
     37 C          26.9733   -0.4987   -7.4356 C.2       5 UNK         0.5014 
     38 O          27.6596    0.0359   -8.3068 O.2       5 UNK        -0.5248 
     39 N          26.6206    0.1150   -6.2928 N.am      6 UNK        -0.4434 
     40 CA         26.9747    1.4946   -5.9332 C.3       6 UNK         0.0363 
     41 CB         26.4167    1.8246   -4.5406 C.3       6 UNK        -0.1936 
     42 C          26.4782    2.5389   -6.9489 C.2       6 UNK         0.5081 
     43 O          27.1525    3.5464   -7.1615 O.2       6 UNK        -0.5248 
     44 N          25.3268    2.2623   -7.5778 N.am      7 UNK        -0.4718 
     45 CA         24.7546    3.0420   -8.6771 C.3       7 UNK         0.0273 
     46 CB         23.3365    2.5241   -8.9670 C.3       7 UNK        -0.1935 
     47 C          25.6023    3.0322   -9.9652 C.2       7 UNK         0.5018 
     48 O          25.4495    3.9461  -10.7771 O.2       7 UNK        -0.5186 
     49 N          26.4637    2.0190  -10.1384 N.am      8 UNK        -0.4240 
     50 CA         27.4177    1.9206  -11.2398 C.3       8 UNK         0.0235 
     51 CB         27.5443    0.4562  -11.7022 C.3       8 UNK        -0.2000 
     52 C          28.7608    2.5204  -10.8018 C.2       8 UNK         0.4941 
     53 O          29.0954    3.6221  -11.2394 O.2       8 UNK        -0.5273 
     54 N          29.4927    1.8017   -9.9411 N.am      9 UNK        -0.4262 
     55 CA         30.7983    2.1729   -9.3949 C.3       9 UNK         0.0264 
     56 CB         31.8687    2.2543  -10.5045 C.3       9 UNK        -0.1955 
     57 C          31.2148    1.1238   -8.3588 C.2       9 UNK         0.5031 
     58 O          30.8812   -0.0526   -8.5200 O.2       9 UNK        -0.5390 
     59 N          31.9695    1.5569   -7.3414 N.am      10 UNK        -0.4204 
     60 CA         32.5781    0.6796   -6.3388 C.3       10 UNK         0.0237 
     61 CB         32.9222    1.4997   -5.0841 C.3       10 UNK        -0.1985 
     62 C          33.8224   -0.0390   -6.8875 C.2       10 UNK         0.4970 
     63 O          34.4268    0.4357   -7.8527 O.2       10 UNK        -0.4914 
     64 N          34.1976   -1.1547   -6.2471 N.am      11 UNK        -0.4285 
     65 CA         35.3663   -1.9698   -6.6217 C.3       11 UNK         0.1007 
     66 C          36.7581   -1.3169   -6.3609 C.2       11 UNK         0.5703 
     67 N          36.8531   -0.2238   -5.6124 N.am      11 UNK        -0.7361 
     68 O          37.7685   -1.8069   -6.8602 O.2       11 UNK        -0.4986 
     69 C69        35.2739   -3.4144   -6.0581 C.3       12 UNK        -0.0947 
     70 S70        35.4272   -3.5338   -4.2398 S.3       12 UNK        -0.2240 
     71 C71        33.8294   -4.2570   -3.7568 C.3       12 UNK         0.0194 
     72 H72        29.9158   -5.6253   -1.1730 H         1 UNK         0.0906 
     73 H73        30.4038   -4.4603   -2.4004 H         1 UNK         0.0906 
     74 H74        31.3116   -4.5800   -0.8889 H         1 UNK         0.0906 
     75 H75        29.6487   -2.3206   -2.2471 H         1 UNK         0.3140 
     76 H76        28.5620   -1.1217    0.1180 H         1 UNK         0.1085 
     77 H77        27.7187    0.6534   -1.4674 H         1 UNK         0.0836 
     78 H78        28.2091   -0.3064   -2.8154 H         1 UNK         0.0836 
     79 H79        32.3511    0.2317   -1.6397 H         1 UNK         0.0731 
     80 H80        31.3544   -0.9047   -0.7765 H         1 UNK         0.0731 
     81 H81        33.2644   -2.2738   -1.9965 H         1 UNK         0.1312 
     82 H82        31.8857   -4.0126   -5.6618 H         1 UNK         0.1406 
     83 H83        29.9240   -0.5631   -4.0911 H         1 UNK         0.1631 
     84 H84        30.2033   -2.9043   -6.9505 H         1 UNK         0.0717 
     85 H85        29.6871   -1.2938   -6.5131 H         1 UNK         0.0717 
     86 H86        28.1614   -3.1681   -8.0220 H         1 UNK         0.0934 
     87 H87        26.8429   -4.0175   -7.3047 H         1 UNK         0.0934 
     88 H88        26.3627   -2.0019   -8.7755 H         1 UNK         0.0739 
     89 H89        24.9921   -2.2674   -6.1652 H         1 UNK         0.3093 
     90 H90        21.8965   -1.3078   -7.6993 H         1 UNK         0.0818 
     91 H91        21.0917   -3.4989   -6.8634 H         1 UNK         0.0819 
     92 H92        22.0594   -3.7299   -8.3088 H         1 UNK         0.0819 
     93 H93        22.7477   -4.0936   -6.7327 H         1 UNK         0.0819 
     94 H94        22.4345   -2.2479   -5.0795 H         1 UNK         0.3041 
     95 H95        23.5324    0.7709   -3.6136 H         1 UNK         0.0784 
     96 H96        21.0583    1.0884   -3.8099 H         1 UNK         0.0793 
     97 H97        20.8016   -0.6055   -3.4149 H         1 UNK         0.0793 
     98 H98        21.5099    0.4873   -2.2246 H         1 UNK         0.0793 
     99 H99        22.8844   -1.5866   -2.3141 H         1 UNK         0.3024 
    100 H100       24.4501   -2.9267   -1.4649 H         1 UNK         0.1171 
    101 H101       24.0070   -4.4619   -3.3910 H         1 UNK         0.0786 
    102 H102       25.3502   -5.0602   -2.4306 H         1 UNK         0.0786 
    103 H103       25.6554   -4.2533   -3.9678 H         1 UNK         0.0786 
    104 H104       27.1988   -2.9740   -2.5462 H         1 UNK         0.2977 
    105 H105       26.1018   -0.4152   -5.5945 H         1 UNK         0.3127 
    106 H106       28.0647    1.5506   -5.8962 H         1 UNK         0.0770 
    107 H107       25.3294    1.8949   -4.5544 H         1 UNK         0.0814 
    108 H108       26.7995    2.7823   -4.1861 H         1 UNK         0.0814 
    109 H109       26.6902    1.0715   -3.8053 H         1 UNK         0.0814 
    110 H110       24.8018    1.4484   -7.2784 H         1 UNK         0.2983 
    111 H111       24.6821    4.0803   -8.3464 H         1 UNK         0.0947 
    112 H112       22.8687    3.0896   -9.7742 H         1 UNK         0.0806 
    113 H113       22.6933    2.6187   -8.0918 H         1 UNK         0.0806 
    114 H114       23.3447    1.4742   -9.2637 H         1 UNK         0.0806 
    115 H115       26.5809    1.3451   -9.3887 H         1 UNK         0.3000 
    116 H116       27.0605    2.4996  -12.0944 H         1 UNK         0.0850 
    117 H117       28.2755    0.3657  -12.5065 H         1 UNK         0.0810 
    118 H118       26.5942    0.0853  -12.0870 H         1 UNK         0.0810 
    119 H119       27.8573   -0.2135  -10.9017 H         1 UNK         0.0810 
    120 H120       29.1175    0.9320   -9.5687 H         1 UNK         0.3040 
    121 H121       30.7012    3.1424   -8.9021 H         1 UNK         0.0766 
    122 H122       32.8578    2.4398  -10.0830 H         1 UNK         0.0812 
    123 H123       31.6685    3.0627  -11.2070 H         1 UNK         0.0812 
    124 H124       31.9273    1.3242  -11.0711 H         1 UNK         0.0812 
    125 H125       32.2459    2.5278   -7.3174 H         1 UNK         0.3205 
    126 H126       31.8453   -0.0770   -6.0703 H         1 UNK         0.0754 
    127 H127       33.3403    0.8650   -4.3015 H         1 UNK         0.0769 
    128 H128       32.0335    1.9736   -4.6662 H         1 UNK         0.0769 
    129 H129       33.6528    2.2808   -5.2979 H         1 UNK         0.0769 
    130 H130       33.6726   -1.4771   -5.4461 H         1 UNK         0.2981 
    131 H131       35.3159   -2.0747   -7.7073 H         1 UNK         0.0541 
    132 H132       36.0316    0.1832   -5.1971 H         1 UNK         0.3459 
    133 H133       37.7582    0.1907   -5.4567 H         1 UNK         0.3459 
    134 H134       36.0578   -4.0347   -6.4960 H         1 UNK         0.0612 
    135 H135       34.3370   -3.8719   -6.3776 H         1 UNK         0.0612 
    136 H136       33.6139   -5.1258   -4.3807 H         1 UNK         0.0624 
    137 H137       33.9075   -4.6284   -2.7340 H         1 UNK         0.0624 
@<TRIPOS>BOND
     1    1    2 1    
     2    1   72 1    
     3    1   73 1    
     4    1   74 1    
     5    2    3 2    
     6    2    4 am   BACKBONE|DICT|INTERRES
     7    4    5 1    
     8    4   75 1    
     9    5    6 1    
    10    5   35 1    
    11    5   76 1    
    12    6    7 1    
    13    6   77 1    
    14    6   78 1    
    15    7    8 1    
    16    8    9 1    
    17    8   79 1    
    18    8   80 1    
    19    9   10 ar   
    20    9   14 ar   
    21   10   11 ar   
    22   10   81 1    
    23   11   12 ar   
    24   11   71 1    
    25   12   13 ar   
    26   12   82 1    
    27   13   14 ar   
    28   13   15 1    
    29   14   83 1    
    30   15   16 1    
    31   15   84 1    
    32   15   85 1    
    33   16   17 1    
    34   17   18 1    
    35   17   86 1    
    36   17   87 1    
    37   18   19 1    
    38   18   37 1    
    39   18   88 1    
    40   19   20 am   BACKBONE|DICT|INTERRES
    41   19   89 1    
    42   20   21 2    
    43   20   22 1    
    44   22   23 1    
    45   22   24 1    
    46   22   90 1    
    47   23   91 1    
    48   23   92 1    
    49   23   93 1    
    50   24   25 am   BACKBONE|DICT|INTERRES
    51   24   94 1    
    52   25   26 2    
    53   25   27 1    
    54   27   28 1    
    55   27   29 1    
    56   27   95 1    
    57   28   96 1    
    58   28   97 1    
    59   28   98 1    
    60   29   30 am   BACKBONE|DICT|INTERRES
    61   29   99 1    
    62   30   31 2    
    63   30   32 1    
    64   32   33 1    
    65   32   34 1    
    66   32  100 1    
    67   33  101 1    
    68   33  102 1    
    69   33  103 1    
    70   34   35 am   BACKBONE|DICT|INTERRES
    71   34  104 1    
    72   35   36 2    
    73   37   38 2    
    74   37   39 am   BACKBONE|DICT|INTERRES
    75   39   40 1    
    76   39  105 1    
    77   40   41 1    
    78   40   42 1    
    79   40  106 1    
    80   41  107 1    
    81   41  108 1    
    82   41  109 1    
    83   42   43 2    
    84   42   44 am   BACKBONE|DICT|INTERRES
    85   44   45 1    
    86   44  110 1    
    87   45   46 1    
    88   45   47 1    
    89   45  111 1    
    90   46  112 1    
    91   46  113 1    
    92   46  114 1    
    93   47   48 2    
    94   47   49 am   BACKBONE|DICT|INTERRES
    95   49   50 1    
    96   49  115 1    
    97   50   51 1    
    98   50   52 1    
    99   50  116 1    
   100   51  117 1    
   101   51  118 1    
   102   51  119 1    
   103   52   53 2    
   104   52   54 am   BACKBONE|DICT|INTERRES
   105   54   55 1    
   106   54  120 1    
   107   55   56 1    
   108   55   57 1    
   109   55  121 1    
   110   56  122 1    
   111   56  123 1    
   112   56  124 1    
   113   57   58 2    
   114   57   59 am   BACKBONE|DICT|INTERRES
   115   59   60 1    
   116   59  125 1    
   117   60   61 1    
   118   60   62 1    
   119   60  126 1    
   120   61  127 1    
   121   61  128 1    
   122   61  129 1    
   123   62   63 2    
   124   62   64 am   BACKBONE|DICT|INTERRES
   125   64   65 1    
   126   64  130 1    
   127   65   66 1    
   128   65   69 1    
   129   65  131 1    
   130   66   67 am   BACKBONE|DICT|INTERRES
   131   66   68 2    
   132   67  132 1    
   133   67  133 1    
   134   69   70 1    
   135   69  134 1    
   136   69  135 1    
   137   70   71 1    
   138   71  136 1    
   139   71  137 1    
@<TRIPOS>SUBSTRUCTURE
     1 UNK         1 GROUP             0       ****    0 ROOT    
