@<TRIPOS>MOLECULE
3R137
137   139    1
SMALL
USER_CHARGES


@<TRIPOS>ATOM
      1 CA         23.0567   -2.8047   -0.9075 C.3       0 UNK        -0.2020 
      2 C          24.5714   -2.9342   -0.8690 C.2       0 UNK         0.4855 
      3 O          25.2395   -2.1054   -0.2497 O.2       0 UNK        -0.5197 
      4 N          25.1215   -3.9590   -1.5365 N.am      1 UNK        -0.4892 
      5 CA         26.5627   -4.2129   -1.6664 C.3       1 UNK         0.0835 
      6 C6         26.8427   -5.5638   -2.3816 C.3       12 UNK        -0.0855 
      7 S7         28.2207   -6.5684   -1.7080 S.3       12 UNK        -0.2931 
      8 C8         29.6388   -5.4317   -1.4617 C.3       12 UNK         0.0378 
      9 C9         30.2459   -4.7921   -2.7143 C.ar      12 UNK        -0.0802 
     10 C10        31.2479   -3.8278   -2.5472 C.ar      12 UNK        -0.0944 
     11 C11        31.8147   -3.1821   -3.6511 C.ar      12 UNK        -0.0787 
     12 C12        31.3671   -3.4962   -4.9358 C.ar      12 UNK        -0.0862 
     13 C13        30.3674   -4.4525   -5.1198 C.ar      12 UNK        -0.0733 
     14 C14        29.8332   -5.1161   -4.0132 C.ar      12 UNK        -0.0832 
     15 C15        29.8249   -4.7398   -6.5094 C.3       12 UNK         0.0240 
     16 S16        28.1835   -3.9852   -6.7300 S.3       12 UNK        -0.2522 
     17 C17        28.6033   -2.2113   -6.6623 C.3       12 UNK        -0.0967 
     18 CA         27.3880   -1.3366   -7.0378 C.3       5 UNK         0.0660 
     19 N          26.3325   -1.3825   -6.0204 N.am      5 UNK        -0.4015 
     20 C          25.0865   -0.9191   -6.1975 C.2       4 UNK         0.4946 
     21 O          24.6986   -0.3713   -7.2302 O.2       4 UNK        -0.5353 
     22 CA         24.1233   -1.0584   -5.0111 C.3       4 UNK         0.0277 
     23 CB         23.6768   -2.5178   -4.8188 C.3       4 UNK        -0.1981 
     24 N          24.7418   -0.5537   -3.7861 N.am      4 UNK        -0.4209 
     25 C          24.7866    0.7438   -3.4499 C.2       3 UNK         0.4942 
     26 O          24.2222    1.6349   -4.0847 O.2       3 UNK        -0.5208 
     27 CA         25.6031    1.1251   -2.2026 C.3       3 UNK         0.0250 
     28 CB         24.6825    1.2869   -0.9824 C.3       3 UNK        -0.1990 
     29 N          26.6682    0.1692   -1.8887 N.am      3 UNK        -0.4232 
     30 C          27.7761    0.0069   -2.6279 C.2       2 UNK         0.4993 
     31 O          28.0097    0.6373   -3.6570 O.2       2 UNK        -0.5286 
     32 CA         28.7581   -1.0868   -2.1799 C.3       2 UNK         0.0209 
     33 CB         29.7064   -0.5478   -1.0971 C.3       2 UNK        -0.1931 
     34 N          28.0918   -2.2923   -1.6844 N.am      2 UNK        -0.4546 
     35 C          27.2285   -3.0292   -2.3956 C.2       1 UNK         0.5154 
     36 O          26.8943   -2.7660   -3.5540 O.2       1 UNK        -0.5181 
     37 C          27.8138    0.0966   -7.4141 C.2       5 UNK         0.5014 
     38 O          28.2156    0.3029   -8.5575 O.2       5 UNK        -0.5248 
     39 N          27.6594    1.0738   -6.5056 N.am      6 UNK        -0.4434 
     40 CA         27.8751    2.5089   -6.7454 C.3       6 UNK         0.0363 
     41 CB         27.5491    3.2972   -5.4664 C.3       6 UNK        -0.1936 
     42 C          27.1038    3.1048   -7.9416 C.2       6 UNK         0.5081 
     43 O          27.5336    4.1256   -8.4788 O.2       6 UNK        -0.5248 
     44 N          25.9998    2.4649   -8.3526 N.am      7 UNK        -0.4718 
     45 CA         25.2311    2.8207   -9.5473 C.3       7 UNK         0.0273 
     46 CB         23.8265    2.2058   -9.4306 C.3       7 UNK        -0.1935 
     47 C          25.8982    2.3909  -10.8712 C.2       7 UNK         0.5018 
     48 O          25.4470    2.8374  -11.9274 O.2       7 UNK        -0.5186 
     49 N          26.9253    1.5319  -10.8147 N.am      8 UNK        -0.4240 
     50 CA         27.6263    0.9809  -11.9714 C.3       8 UNK         0.0235 
     51 CB         26.9666   -0.3521  -12.3861 C.3       8 UNK        -0.2000 
     52 C          29.1226    0.8751  -11.6416 C.2       8 UNK         0.4941 
     53 O          29.8020    1.9030  -11.5972 O.2       8 UNK        -0.5273 
     54 N          29.6195   -0.3498  -11.4201 N.am      9 UNK        -0.4262 
     55 CA         31.0047   -0.6663  -11.0619 C.3       9 UNK         0.0264 
     56 CB         31.2597   -2.1587  -11.3465 C.3       9 UNK        -0.1955 
     57 C          31.3210   -0.2849   -9.6019 C.2       9 UNK         0.5031 
     58 O          31.4753   -1.1655   -8.7526 O.2       9 UNK        -0.5390 
     59 N          31.3803    1.0273   -9.3430 N.am      10 UNK        -0.4204 
     60 CA         31.6246    1.6417   -8.0373 C.3       10 UNK         0.0237 
     61 CB         31.5228    3.1693   -8.1826 C.3       10 UNK        -0.1985 
     62 C          32.9751    1.2475   -7.4139 C.2       10 UNK         0.4970 
     63 O          33.9366    0.9684   -8.1344 O.2       10 UNK        -0.4914 
     64 N          33.0125    1.2592   -6.0773 N.am      11 UNK        -0.4285 
     65 CA         34.1437    0.8077   -5.2501 C.3       11 UNK         0.1007 
     66 C          35.4119    1.7095   -5.2996 C.2       11 UNK         0.5703 
     67 N          35.3488    2.9213   -5.8388 N.am      11 UNK        -0.7361 
     68 O          36.4751    1.2973   -4.8416 O.2       11 UNK        -0.4986 
     69 C69        33.7099    0.5506   -3.7803 C.3       12 UNK        -0.0947 
     70 S70        32.1989   -0.4618   -3.6433 S.3       12 UNK        -0.2240 
     71 C71        32.8960   -2.1291   -3.4696 C.3       12 UNK         0.0194 
     72 H72        22.7733   -1.8682   -1.3872 H         1 UNK         0.0906 
     73 H73        22.5900   -3.6226   -1.4560 H         1 UNK         0.0906 
     74 H74        22.6554   -2.8036    0.1055 H         1 UNK         0.0906 
     75 H75        24.5201   -4.5949   -2.0406 H         1 UNK         0.3140 
     76 H76        26.9525   -4.2704   -0.6481 H         1 UNK         0.1085 
     77 H77        26.9696   -5.4369   -3.4584 H         1 UNK         0.0836 
     78 H78        25.9672   -6.2092   -2.2938 H         1 UNK         0.0836 
     79 H79        29.3544   -4.6540   -0.7535 H         1 UNK         0.0731 
     80 H80        30.4273   -6.0024   -0.9691 H         1 UNK         0.0731 
     81 H81        31.5812   -3.5698   -1.5512 H         1 UNK         0.1312 
     82 H82        31.7809   -2.9761   -5.7897 H         1 UNK         0.1406 
     83 H83        29.0709   -5.8611   -4.1827 H         1 UNK         0.1631 
     84 H84        29.7456   -5.8178   -6.6563 H         1 UNK         0.0717 
     85 H85        30.5033   -4.3711   -7.2808 H         1 UNK         0.0717 
     86 H86        28.9686   -1.9571   -5.6652 H         1 UNK         0.0934 
     87 H87        29.4329   -2.0417   -7.3509 H         1 UNK         0.0934 
     88 H88        26.9556   -1.7539   -7.9503 H         1 UNK         0.0739 
     89 H89        26.5679   -1.8537   -5.1487 H         1 UNK         0.3093 
     90 H90        23.2324   -0.4659   -5.2316 H         1 UNK         0.0818 
     91 H91        22.9495   -2.6049   -4.0121 H         1 UNK         0.0819 
     92 H92        23.2008   -2.8982   -5.7236 H         1 UNK         0.0819 
     93 H93        24.5119   -3.1802   -4.5909 H         1 UNK         0.0819 
     94 H94        25.2874   -1.2124   -3.2465 H         1 UNK         0.3041 
     95 H95        26.0709    2.0912   -2.4048 H         1 UNK         0.0784 
     96 H96        23.9121    2.0355   -1.1726 H         1 UNK         0.0793 
     97 H97        24.1748    0.3556   -0.7305 H         1 UNK         0.0793 
     98 H98        25.2400    1.6135   -0.1044 H         1 UNK         0.0793 
     99 H99        26.5169   -0.4395   -1.0925 H         1 UNK         0.3024 
    100 H100       29.3488   -1.3720   -3.0535 H         1 UNK         0.1171 
    101 H101       29.1765   -0.3081   -0.1745 H         1 UNK         0.0786 
    102 H102       30.2030    0.3637   -1.4329 H         1 UNK         0.0786 
    103 H103       30.4882   -1.2695   -0.8605 H         1 UNK         0.0786 
    104 H104       28.2680   -2.5386   -0.7215 H         1 UNK         0.2977 
    105 H105       27.4247    0.8146   -5.5516 H         1 UNK         0.3127 
    106 H106       28.9349    2.6426   -6.9596 H         1 UNK         0.0770 
    107 H107       26.5302    3.1082   -5.1261 H         1 UNK         0.0814 
    108 H108       27.6458    4.3716   -5.6291 H         1 UNK         0.0814 
    109 H109       28.2298    3.0385   -4.6560 H         1 UNK         0.0814 
    110 H110       25.7121    1.6260   -7.8622 H         1 UNK         0.2983 
    111 H111       25.1250    3.9073   -9.5786 H         1 UNK         0.0947 
    112 H112       23.1991    2.4987  -10.2736 H         1 UNK         0.0806 
    113 H113       23.3217    2.5352   -8.5222 H         1 UNK         0.0806 
    114 H114       23.8648    1.1158   -9.4164 H         1 UNK         0.0806 
    115 H115       27.2818    1.2350   -9.9077 H         1 UNK         0.3000 
    116 H116       27.5525    1.6737  -12.8125 H         1 UNK         0.0850 
    117 H117       27.4996   -0.8178  -13.2164 H         1 UNK         0.0810 
    118 H118       25.9416   -0.1892  -12.7199 H         1 UNK         0.0810 
    119 H119       26.9304   -1.0665  -11.5625 H         1 UNK         0.0810 
    120 H120       28.9757   -1.1269  -11.4325 H         1 UNK         0.3040 
    121 H121       31.6714   -0.0872  -11.7047 H         1 UNK         0.0766 
    122 H122       32.2881   -2.4306  -11.1045 H         1 UNK         0.0812 
    123 H123       31.1024   -2.3955  -12.3989 H         1 UNK         0.0812 
    124 H124       30.6057   -2.8013  -10.7553 H         1 UNK         0.0812 
    125 H125       31.1499    1.6523  -10.1086 H         1 UNK         0.3205 
    126 H126       30.8310    1.2932   -7.3738 H         1 UNK         0.0754 
    127 H127       31.6149    3.6650   -7.2154 H         1 UNK         0.0769 
    128 H128       30.5632    3.4667   -8.6073 H         1 UNK         0.0769 
    129 H129       32.3084    3.5637   -8.8287 H         1 UNK         0.0769 
    130 H130       32.1825    1.5163   -5.5643 H         1 UNK         0.2981 
    131 H131       34.4566   -0.1537   -5.6620 H         1 UNK         0.0541 
    132 H132       34.4840    3.2638   -6.2242 H         1 UNK         0.3459 
    133 H133       36.1780    3.4932   -5.8675 H         1 UNK         0.3459 
    134 H134       33.5135    1.4981   -3.2752 H         1 UNK         0.0612 
    135 H135       34.5122    0.0685   -3.2184 H         1 UNK         0.0612 
    136 H136       33.6780   -2.2776   -4.2158 H         1 UNK         0.0624 
    137 H137       33.3717   -2.2231   -2.4922 H         1 UNK         0.0624 
@<TRIPOS>BOND
     1    1    2 1    
     2    1   72 1    
     3    1   73 1    
     4    1   74 1    
     5    2    3 2    
     6    2    4 am   BACKBONE|DICT|INTERRES
     7    4    5 1    
     8    4   75 1    
     9    5    6 1    
    10    5   35 1    
    11    5   76 1    
    12    6    7 1    
    13    6   77 1    
    14    6   78 1    
    15    7    8 1    
    16    8    9 1    
    17    8   79 1    
    18    8   80 1    
    19    9   10 ar   
    20    9   14 ar   
    21   10   11 ar   
    22   10   81 1    
    23   11   12 ar   
    24   11   71 1    
    25   12   13 ar   
    26   12   82 1    
    27   13   14 ar   
    28   13   15 1    
    29   14   83 1    
    30   15   16 1    
    31   15   84 1    
    32   15   85 1    
    33   16   17 1    
    34   17   18 1    
    35   17   86 1    
    36   17   87 1    
    37   18   19 1    
    38   18   37 1    
    39   18   88 1    
    40   19   20 am   BACKBONE|DICT|INTERRES
    41   19   89 1    
    42   20   21 2    
    43   20   22 1    
    44   22   23 1    
    45   22   24 1    
    46   22   90 1    
    47   23   91 1    
    48   23   92 1    
    49   23   93 1    
    50   24   25 am   BACKBONE|DICT|INTERRES
    51   24   94 1    
    52   25   26 2    
    53   25   27 1    
    54   27   28 1    
    55   27   29 1    
    56   27   95 1    
    57   28   96 1    
    58   28   97 1    
    59   28   98 1    
    60   29   30 am   BACKBONE|DICT|INTERRES
    61   29   99 1    
    62   30   31 2    
    63   30   32 1    
    64   32   33 1    
    65   32   34 1    
    66   32  100 1    
    67   33  101 1    
    68   33  102 1    
    69   33  103 1    
    70   34   35 am   BACKBONE|DICT|INTERRES
    71   34  104 1    
    72   35   36 2    
    73   37   38 2    
    74   37   39 am   BACKBONE|DICT|INTERRES
    75   39   40 1    
    76   39  105 1    
    77   40   41 1    
    78   40   42 1    
    79   40  106 1    
    80   41  107 1    
    81   41  108 1    
    82   41  109 1    
    83   42   43 2    
    84   42   44 am   BACKBONE|DICT|INTERRES
    85   44   45 1    
    86   44  110 1    
    87   45   46 1    
    88   45   47 1    
    89   45  111 1    
    90   46  112 1    
    91   46  113 1    
    92   46  114 1    
    93   47   48 2    
    94   47   49 am   BACKBONE|DICT|INTERRES
    95   49   50 1    
    96   49  115 1    
    97   50   51 1    
    98   50   52 1    
    99   50  116 1    
   100   51  117 1    
   101   51  118 1    
   102   51  119 1    
   103   52   53 2    
   104   52   54 am   BACKBONE|DICT|INTERRES
   105   54   55 1    
   106   54  120 1    
   107   55   56 1    
   108   55   57 1    
   109   55  121 1    
   110   56  122 1    
   111   56  123 1    
   112   56  124 1    
   113   57   58 2    
   114   57   59 am   BACKBONE|DICT|INTERRES
   115   59   60 1    
   116   59  125 1    
   117   60   61 1    
   118   60   62 1    
   119   60  126 1    
   120   61  127 1    
   121   61  128 1    
   122   61  129 1    
   123   62   63 2    
   124   62   64 am   BACKBONE|DICT|INTERRES
   125   64   65 1    
   126   64  130 1    
   127   65   66 1    
   128   65   69 1    
   129   65  131 1    
   130   66   67 am   BACKBONE|DICT|INTERRES
   131   66   68 2    
   132   67  132 1    
   133   67  133 1    
   134   69   70 1    
   135   69  134 1    
   136   69  135 1    
   137   70   71 1    
   138   71  136 1    
   139   71  137 1    
@<TRIPOS>SUBSTRUCTURE
     1 UNK         1 GROUP             0       ****    0 ROOT    
