@<TRIPOS>MOLECULE
3R137
137   139    1
SMALL
USER_CHARGES


@<TRIPOS>ATOM
      1 CA         29.3043    1.1753   -1.1921 C.3       0 UNK        -0.2020 
      2 C          28.9819   -0.1980   -1.7608 C.2       0 UNK         0.4855 
      3 O          28.9168   -0.3516   -2.9791 O.2       0 UNK        -0.5197 
      4 N          28.7852   -1.1963   -0.8880 N.am      1 UNK        -0.4892 
      5 CA         28.4698   -2.5769   -1.2778 C.3       1 UNK         0.0835 
      6 C6         28.7174   -3.5902   -0.1295 C.3       12 UNK        -0.0855 
      7 S7         30.4517   -3.6270    0.4398 S.3       12 UNK        -0.2931 
      8 C8         31.1233   -5.0323   -0.5094 C.3       12 UNK         0.0378 
      9 C9         31.1894   -4.7054   -1.9929 C.ar      12 UNK        -0.0802 
     10 C10        32.2297   -3.9154   -2.4863 C.ar      12 UNK        -0.0944 
     11 C11        32.2575   -3.5442   -3.8318 C.ar      12 UNK        -0.0787 
     12 C12        31.2423   -3.9788   -4.6896 C.ar      12 UNK        -0.0862 
     13 C13        30.1789   -4.7525   -4.2045 C.ar      12 UNK        -0.0733 
     14 C14        30.1820   -5.1391   -2.8604 C.ar      12 UNK        -0.0832 
     15 C15        28.9988   -5.1788   -5.0811 C.3       12 UNK         0.0240 
     16 S16        28.6613   -4.1221   -6.5330 S.3       12 UNK        -0.2522 
     17 C17        28.4063   -2.4719   -5.7928 C.3       12 UNK        -0.0967 
     18 CA         27.5732   -1.5731   -6.7382 C.3       5 UNK         0.0660 
     19 N          26.1378   -1.8576   -6.6653 N.am      5 UNK        -0.4015 
     20 C          25.2462   -1.4524   -7.5801 C.2       4 UNK         0.4946 
     21 O          25.5366   -0.7952   -8.5809 O.2       4 UNK        -0.5353 
     22 CA         23.7758   -1.8123   -7.3127 C.3       4 UNK         0.0277 
     23 CB         23.5400   -3.3263   -7.4457 C.3       4 UNK        -0.1981 
     24 N          23.3068   -1.3473   -6.0048 N.am      4 UNK        -0.4209 
     25 C          23.2448   -0.0591   -5.6386 C.2       3 UNK         0.4942 
     26 O          23.5807    0.8772   -6.3598 O.2       3 UNK        -0.5208 
     27 CA         22.7430    0.2499   -4.2203 C.3       3 UNK         0.0250 
     28 CB         21.2075    0.3240   -4.2012 C.3       3 UNK        -0.1990 
     29 N          23.2008   -0.6707   -3.1747 N.am      3 UNK        -0.4232 
     30 C          24.4719   -1.0140   -2.9208 C.2       2 UNK         0.4993 
     31 O          25.4254   -0.7119   -3.6435 O.2       2 UNK        -0.5286 
     32 CA         24.6885   -1.7911   -1.6101 C.3       2 UNK         0.0209 
     33 CB         23.9584   -3.1532   -1.6099 C.3       2 UNK        -0.1931 
     34 N          26.1081   -1.9259   -1.2584 N.am      2 UNK        -0.4546 
     35 C          27.0308   -2.7283   -1.8104 C.2       1 UNK         0.5154 
     36 O          26.7957   -3.5720   -2.6759 O.2       1 UNK        -0.5181 
     37 C          27.8770   -0.0790   -6.5276 C.2       5 UNK         0.5014 
     38 O          28.7789    0.4361   -7.1931 O.2       5 UNK        -0.5248 
     39 N          27.1092    0.5953   -5.6581 N.am      6 UNK        -0.4434 
     40 CA         27.2078    2.0349   -5.4173 C.3       6 UNK         0.0363 
     41 CB         26.3395    2.4248   -4.2114 C.3       6 UNK        -0.1936 
     42 C          26.8410    2.8722   -6.6544 C.2       6 UNK         0.5081 
     43 O          27.5956    3.7783   -7.0070 O.2       6 UNK        -0.5248 
     44 N          25.7145    2.5480   -7.3082 N.am      7 UNK        -0.4718 
     45 CA         25.2446    3.2211   -8.5246 C.3       7 UNK         0.0273 
     46 CB         23.7959    2.8098   -8.8298 C.3       7 UNK        -0.1935 
     47 C          26.1424    2.9546   -9.7416 C.2       7 UNK         0.5018 
     48 O          26.3674    3.8695  -10.5349 O.2       7 UNK        -0.5186 
     49 N          26.6547    1.7212   -9.8591 N.am      8 UNK        -0.4240 
     50 CA         27.6135    1.3271  -10.8946 C.3       8 UNK         0.0235 
     51 CB         27.6901   -0.2075  -10.9510 C.3       8 UNK        -0.2000 
     52 C          29.0212    1.9156  -10.6866 C.2       8 UNK         0.4941 
     53 O          29.7935    1.9513  -11.6453 O.2       8 UNK        -0.5273 
     54 N          29.3377    2.3233   -9.4460 N.am      9 UNK        -0.4262 
     55 CA         30.6609    2.7146   -8.9431 C.3       9 UNK         0.0264 
     56 CB         31.1384    4.0316   -9.5899 C.3       9 UNK        -0.1955 
     57 C          31.6766    1.5633   -9.0802 C.2       9 UNK         0.5031 
     58 O          32.8219    1.7831   -9.4820 O.2       9 UNK        -0.5390 
     59 N          31.2188    0.3436   -8.7596 N.am      10 UNK        -0.4204 
     60 CA         31.9182   -0.9220   -9.0067 C.3       10 UNK         0.0237 
     61 CB         30.9806   -2.0883   -8.6618 C.3       10 UNK        -0.1985 
     62 C          33.2527   -1.0702   -8.2586 C.2       10 UNK         0.4970 
     63 O          34.1245   -1.8056   -8.7234 O.2       10 UNK        -0.4914 
     64 N          33.3869   -0.3726   -7.1261 N.am      11 UNK        -0.4285 
     65 CA         34.6070   -0.3231   -6.3107 C.3       11 UNK         0.1007 
     66 C          35.7168    0.6078   -6.8829 C.2       11 UNK         0.5703 
     67 N          35.4678    1.3868   -7.9310 N.am      11 UNK        -0.7361 
     68 O          36.8325    0.6162   -6.3682 O.2       11 UNK        -0.4986 
     69 C69        34.2982    0.0118   -4.8249 C.3       12 UNK        -0.0947 
     70 S70        32.8787   -0.8886   -4.1086 S.3       12 UNK        -0.2240 
     71 C71        33.3554   -2.6286   -4.3450 C.3       12 UNK         0.0194 
     72 H72        28.5545    1.8985   -1.5118 H         1 UNK         0.0906 
     73 H73        30.2761    1.5097   -1.5545 H         1 UNK         0.0906 
     74 H74        29.3309    1.1714   -0.1026 H         1 UNK         0.0906 
     75 H75        28.8925   -1.0297    0.1028 H         1 UNK         0.3140 
     76 H76        29.1282   -2.8242   -2.1110 H         1 UNK         0.1085 
     77 H77        28.4275   -4.5983   -0.4325 H         1 UNK         0.0836 
     78 H78        28.0880   -3.3494    0.7294 H         1 UNK         0.0836 
     79 H79        32.1240   -5.2634   -0.1411 H         1 UNK         0.0731 
     80 H80        30.5192   -5.9233   -0.3313 H         1 UNK         0.0731 
     81 H81        32.9981   -3.5581   -1.8140 H         1 UNK         0.1312 
     82 H82        31.2688   -3.6792   -5.7274 H         1 UNK         0.1406 
     83 H83        29.3665   -5.7370   -2.4760 H         1 UNK         0.1631 
     84 H84        28.0885   -5.2173   -4.4807 H         1 UNK         0.0717 
     85 H85        29.1797   -6.1956   -5.4314 H         1 UNK         0.0717 
     86 H86        27.9281   -2.5610   -4.8168 H         1 UNK         0.0934 
     87 H87        29.3895   -2.0384   -5.5995 H         1 UNK         0.0934 
     88 H88        27.8871   -1.7858   -7.7627 H         1 UNK         0.0739 
     89 H89        25.8140   -2.3472   -5.8438 H         1 UNK         0.3093 
     90 H90        23.1753   -1.3101   -8.0745 H         1 UNK         0.0818 
     91 H91        23.8876   -3.6905   -8.4137 H         1 UNK         0.0819 
     92 H92        24.0664   -3.8928   -6.6766 H         1 UNK         0.0819 
     93 H93        22.4797   -3.5692   -7.3734 H         1 UNK         0.0819 
     94 H94        23.0193   -2.0489   -5.3385 H         1 UNK         0.3041 
     95 H95        23.1262    1.2372   -3.9563 H         1 UNK         0.0784 
     96 H96        20.8405    1.0174   -4.9597 H         1 UNK         0.0793 
     97 H97        20.7528   -0.6472   -4.4005 H         1 UNK         0.0793 
     98 H98        20.8376    0.6778   -3.2386 H         1 UNK         0.0793 
     99 H99        22.4904   -0.9805   -2.5272 H         1 UNK         0.3024 
    100 H100       24.2532   -1.1822   -0.8157 H         1 UNK         0.1171 
    101 H101       22.8762   -3.0226   -1.6320 H         1 UNK         0.0786 
    102 H102       24.2238   -3.7609   -2.4755 H         1 UNK         0.0786 
    103 H103       24.1911   -3.7281   -0.7135 H         1 UNK         0.0786 
    104 H104       26.4470   -1.2531   -0.5854 H         1 UNK         0.2977 
    105 H105       26.4349    0.0834   -5.0930 H         1 UNK         0.3127 
    106 H106       28.2483    2.2514   -5.1654 H         1 UNK         0.0770 
    107 H107       25.2840    2.2251   -4.3944 H         1 UNK         0.0814 
    108 H108       26.4383    3.4873   -3.9862 H         1 UNK         0.0814 
    109 H109       26.6340    1.8728   -3.3186 H         1 UNK         0.0814 
    110 H110       25.1174    1.8084   -6.9427 H         1 UNK         0.2983 
    111 H111       25.2584    4.2971   -8.3370 H         1 UNK         0.0947 
    112 H112       23.7099    1.7352   -8.9980 H         1 UNK         0.0806 
    113 H113       23.4255    3.3123   -9.7243 H         1 UNK         0.0806 
    114 H114       23.1282    3.0744   -8.0099 H         1 UNK         0.0806 
    115 H115       26.3656    1.0025   -9.2017 H         1 UNK         0.3000 
    116 H116       27.2462    1.6880  -11.8578 H         1 UNK         0.0850 
    117 H117       28.3792   -0.5389  -11.7290 H         1 UNK         0.0810 
    118 H118       26.7166   -0.6455  -11.1721 H         1 UNK         0.0810 
    119 H119       28.0379   -0.6264  -10.0061 H         1 UNK         0.0810 
    120 H120       28.6271    2.2219   -8.7318 H         1 UNK         0.3040 
    121 H121       30.5398    2.8937   -7.8735 H         1 UNK         0.0766 
    122 H122       31.3365    3.9131  -10.6555 H         1 UNK         0.0812 
    123 H123       32.0618    4.3802   -9.1259 H         1 UNK         0.0812 
    124 H124       30.3969    4.8216   -9.4714 H         1 UNK         0.0812 
    125 H125       30.2859    0.2851   -8.3555 H         1 UNK         0.3205 
    126 H126       32.1412   -0.9658  -10.0747 H         1 UNK         0.0754 
    127 H127       31.4550   -3.0494   -8.8655 H         1 UNK         0.0769 
    128 H128       30.0622   -2.0508   -9.2475 H         1 UNK         0.0769 
    129 H129       30.7088   -2.0766   -7.6071 H         1 UNK         0.0769 
    130 H130       32.6185    0.2017   -6.8147 H         1 UNK         0.2981 
    131 H131       35.0473   -1.3213   -6.3263 H         1 UNK         0.0541 
    132 H132       36.2018    1.9777   -8.2872 H         1 UNK         0.3459 
    133 H133       34.5576    1.3932   -8.3772 H         1 UNK         0.3459 
    134 H134       34.0847    1.0769   -4.7176 H         1 UNK         0.0612 
    135 H135       35.1735   -0.1853   -4.2034 H         1 UNK         0.0612 
    136 H136       33.5333   -2.8276   -5.4022 H         1 UNK         0.0624 
    137 H137       34.2930   -2.8260   -3.8232 H         1 UNK         0.0624 
@<TRIPOS>BOND
     1    1    2 1    
     2    1   72 1    
     3    1   73 1    
     4    1   74 1    
     5    2    3 2    
     6    2    4 am   BACKBONE|DICT|INTERRES
     7    4    5 1    
     8    4   75 1    
     9    5    6 1    
    10    5   35 1    
    11    5   76 1    
    12    6    7 1    
    13    6   77 1    
    14    6   78 1    
    15    7    8 1    
    16    8    9 1    
    17    8   79 1    
    18    8   80 1    
    19    9   10 ar   
    20    9   14 ar   
    21   10   11 ar   
    22   10   81 1    
    23   11   12 ar   
    24   11   71 1    
    25   12   13 ar   
    26   12   82 1    
    27   13   14 ar   
    28   13   15 1    
    29   14   83 1    
    30   15   16 1    
    31   15   84 1    
    32   15   85 1    
    33   16   17 1    
    34   17   18 1    
    35   17   86 1    
    36   17   87 1    
    37   18   19 1    
    38   18   37 1    
    39   18   88 1    
    40   19   20 am   BACKBONE|DICT|INTERRES
    41   19   89 1    
    42   20   21 2    
    43   20   22 1    
    44   22   23 1    
    45   22   24 1    
    46   22   90 1    
    47   23   91 1    
    48   23   92 1    
    49   23   93 1    
    50   24   25 am   BACKBONE|DICT|INTERRES
    51   24   94 1    
    52   25   26 2    
    53   25   27 1    
    54   27   28 1    
    55   27   29 1    
    56   27   95 1    
    57   28   96 1    
    58   28   97 1    
    59   28   98 1    
    60   29   30 am   BACKBONE|DICT|INTERRES
    61   29   99 1    
    62   30   31 2    
    63   30   32 1    
    64   32   33 1    
    65   32   34 1    
    66   32  100 1    
    67   33  101 1    
    68   33  102 1    
    69   33  103 1    
    70   34   35 am   BACKBONE|DICT|INTERRES
    71   34  104 1    
    72   35   36 2    
    73   37   38 2    
    74   37   39 am   BACKBONE|DICT|INTERRES
    75   39   40 1    
    76   39  105 1    
    77   40   41 1    
    78   40   42 1    
    79   40  106 1    
    80   41  107 1    
    81   41  108 1    
    82   41  109 1    
    83   42   43 2    
    84   42   44 am   BACKBONE|DICT|INTERRES
    85   44   45 1    
    86   44  110 1    
    87   45   46 1    
    88   45   47 1    
    89   45  111 1    
    90   46  112 1    
    91   46  113 1    
    92   46  114 1    
    93   47   48 2    
    94   47   49 am   BACKBONE|DICT|INTERRES
    95   49   50 1    
    96   49  115 1    
    97   50   51 1    
    98   50   52 1    
    99   50  116 1    
   100   51  117 1    
   101   51  118 1    
   102   51  119 1    
   103   52   53 2    
   104   52   54 am   BACKBONE|DICT|INTERRES
   105   54   55 1    
   106   54  120 1    
   107   55   56 1    
   108   55   57 1    
   109   55  121 1    
   110   56  122 1    
   111   56  123 1    
   112   56  124 1    
   113   57   58 2    
   114   57   59 am   BACKBONE|DICT|INTERRES
   115   59   60 1    
   116   59  125 1    
   117   60   61 1    
   118   60   62 1    
   119   60  126 1    
   120   61  127 1    
   121   61  128 1    
   122   61  129 1    
   123   62   63 2    
   124   62   64 am   BACKBONE|DICT|INTERRES
   125   64   65 1    
   126   64  130 1    
   127   65   66 1    
   128   65   69 1    
   129   65  131 1    
   130   66   67 am   BACKBONE|DICT|INTERRES
   131   66   68 2    
   132   67  132 1    
   133   67  133 1    
   134   69   70 1    
   135   69  134 1    
   136   69  135 1    
   137   70   71 1    
   138   71  136 1    
   139   71  137 1    
@<TRIPOS>SUBSTRUCTURE
     1 UNK         1 GROUP             0       ****    0 ROOT    
