@<TRIPOS>MOLECULE
3R137
137   139    1
SMALL
USER_CHARGES


@<TRIPOS>ATOM
      1 CA         28.6595   -2.0371    3.6366 C.3       0 UNK        -0.2020 
      2 C          28.2572   -2.1669    2.1745 C.2       0 UNK         0.4855 
      3 O          27.3704   -2.9621    1.8647 O.2       0 UNK        -0.5197 
      4 N          28.9077   -1.3860    1.2977 N.am      1 UNK        -0.4892 
      5 CA         28.7283   -1.2934   -0.1600 C.3       1 UNK         0.0835 
      6 C6         29.5939   -2.3048   -0.9697 C.3       12 UNK        -0.0855 
      7 S7         29.2058   -4.0801   -0.7605 S.3       12 UNK        -0.2931 
      8 C8         30.6097   -4.8618   -1.6198 C.3       12 UNK         0.0378 
      9 C9         30.7531   -4.3701   -3.0539 C.ar      12 UNK        -0.0802 
     10 C10        31.8729   -3.6240   -3.4317 C.ar      12 UNK        -0.0944 
     11 C11        32.0072   -3.1535   -4.7412 C.ar      12 UNK        -0.0787 
     12 C12        31.0026   -3.4292   -5.6741 C.ar      12 UNK        -0.0862 
     13 C13        29.8797   -4.1841   -5.3138 C.ar      12 UNK        -0.0733 
     14 C14        29.7682   -4.6599   -4.0026 C.ar      12 UNK        -0.0832 
     15 C15        28.8225   -4.5160   -6.3617 C.3       12 UNK         0.0240 
     16 S16        27.1116   -4.2662   -5.7735 S.3       12 UNK        -0.2522 
     17 C17        26.2467   -4.0199   -7.3658 C.3       12 UNK        -0.0967 
     18 CA         25.9026   -2.5490   -7.7291 C.3       5 UNK         0.0660 
     19 N          24.7811   -2.0137   -6.9529 N.am      5 UNK        -0.4015 
     20 C          23.6859   -1.4678   -7.5038 C.2       4 UNK         0.4946 
     21 O          23.4626   -1.4495   -8.7154 O.2       4 UNK        -0.5353 
     22 CA         22.6533   -0.8164   -6.5647 C.3       4 UNK         0.0277 
     23 CB         21.5605   -1.8299   -6.1875 C.3       4 UNK        -0.1981 
     24 N          23.2165   -0.2394   -5.3430 N.am      4 UNK        -0.4209 
     25 C          24.1516    0.7200   -5.2880 C.2       3 UNK         0.4942 
     26 O          24.6600    1.2509   -6.2750 O.2       3 UNK        -0.5208 
     27 CA         24.6480    1.1129   -3.8860 C.3       3 UNK         0.0250 
     28 CB         23.7638    2.2255   -3.3009 C.3       3 UNK        -0.1990 
     29 N          24.7391    0.0044   -2.9230 N.am      3 UNK        -0.4232 
     30 C          25.3280   -1.1828   -3.1313 C.2       2 UNK         0.4993 
     31 O          25.8141   -1.5313   -4.2092 O.2       2 UNK        -0.5286 
     32 CA         25.3961   -2.1405   -1.9355 C.3       2 UNK         0.0209 
     33 CB         25.0328   -3.5781   -2.3455 C.3       2 UNK        -0.1931 
     34 N          26.7441   -2.1302   -1.3746 N.am      2 UNK        -0.4546 
     35 C          27.2488   -1.1660   -0.5959 C.2       1 UNK         0.5154 
     36 O          26.5980   -0.1857   -0.2251 O.2       1 UNK        -0.5181 
     37 C          27.1135   -1.6014   -7.6496 C.2       5 UNK         0.5014 
     38 O          27.7896   -1.4122   -8.6601 O.2       5 UNK        -0.5248 
     39 N          27.3730   -1.0181   -6.4695 N.am      6 UNK        -0.4434 
     40 CA         28.5453   -0.1915   -6.1838 C.3       6 UNK         0.0363 
     41 CB         28.5966    0.1311   -4.6836 C.3       6 UNK        -0.1936 
     42 C          28.6288    1.0874   -7.0286 C.2       6 UNK         0.5081 
     43 O          29.7343    1.4730   -7.4094 O.2       6 UNK        -0.5248 
     44 N          27.4792    1.7026   -7.3435 N.am      7 UNK        -0.4718 
     45 CA         27.4044    2.8673   -8.2309 C.3       7 UNK         0.0273 
     46 CB         26.0277    3.5362   -8.0980 C.3       7 UNK        -0.1935 
     47 C          27.6923    2.5147   -9.7004 C.2       7 UNK         0.5018 
     48 O          28.2966    3.3236  -10.4042 O.2       7 UNK        -0.5186 
     49 N          27.2758    1.3150  -10.1309 N.am      8 UNK        -0.4240 
     50 CA         27.5236    0.7846  -11.4742 C.3       8 UNK         0.0235 
     51 CB         26.5333   -0.3527  -11.7749 C.3       8 UNK        -0.2000 
     52 C          28.9757    0.3099  -11.6407 C.2       8 UNK         0.4941 
     53 O          29.5860    0.5726  -12.6772 O.2       8 UNK        -0.5273 
     54 N          29.5086   -0.3541  -10.6055 N.am      9 UNK        -0.4262 
     55 CA         30.8989   -0.8068  -10.5146 C.3       9 UNK         0.0264 
     56 CB         31.0177   -1.8045   -9.3503 C.3       9 UNK        -0.1955 
     57 C          31.9120    0.3381  -10.3288 C.2       9 UNK         0.5031 
     58 O          33.0982    0.1257  -10.5835 O.2       9 UNK        -0.5390 
     59 N          31.4344    1.5051   -9.8688 N.am      10 UNK        -0.4204 
     60 CA         32.1958    2.6945   -9.4725 C.3       10 UNK         0.0237 
     61 CB         32.9313    3.3210  -10.6766 C.3       10 UNK        -0.1985 
     62 C          33.1152    2.3994   -8.2724 C.2       10 UNK         0.4970 
     63 O          34.3028    2.7287   -8.3002 O.2       10 UNK        -0.4914 
     64 N          32.5380    1.7628   -7.2449 N.am      11 UNK        -0.4285 
     65 CA         33.2187    1.3789   -5.9998 C.3       11 UNK         0.1007 
     66 C          33.6034    2.5790   -5.0826 C.2       11 UNK         0.5703 
     67 N          32.9744    3.7413   -5.2186 N.am      11 UNK        -0.7361 
     68 O          34.4963    2.4608   -4.2472 O.2       11 UNK        -0.4986 
     69 C69        32.4018    0.3018   -5.2332 C.3       12 UNK        -0.0947 
     70 S70        33.4565   -0.8223   -4.2607 S.3       12 UNK        -0.2240 
     71 C71        33.2653   -2.3981   -5.1528 C.3       12 UNK         0.0194 
     72 H72        29.0102   -2.9971    4.0147 H         1 UNK         0.0906 
     73 H73        29.4549   -1.3062    3.7809 H         1 UNK         0.0906 
     74 H74        27.8030   -1.7280    4.2352 H         1 UNK         0.0906 
     75 H75        29.5992   -0.7476    1.6660 H         1 UNK         0.3140 
     76 H76        29.1397   -0.3131   -0.4080 H         1 UNK         0.1085 
     77 H77        29.5372   -2.0639   -2.0331 H         1 UNK         0.0836 
     78 H78        30.6422   -2.1633   -0.7020 H         1 UNK         0.0836 
     79 H79        31.5214   -4.6738   -1.0505 H         1 UNK         0.0731 
     80 H80        30.4673   -5.9433   -1.6224 H         1 UNK         0.0731 
     81 H81        32.6470   -3.4086   -2.7077 H         1 UNK         0.1312 
     82 H82        31.1084   -3.0771   -6.6902 H         1 UNK         0.1406 
     83 H83        28.9070   -5.2473   -3.7138 H         1 UNK         0.1631 
     84 H84        28.9856   -3.9051   -7.2509 H         1 UNK         0.0717 
     85 H85        28.9427   -5.5541   -6.6736 H         1 UNK         0.0717 
     86 H86        26.8446   -4.4613   -8.1653 H         1 UNK         0.0934 
     87 H87        25.3302   -4.6116   -7.3435 H         1 UNK         0.0934 
     88 H88        25.6263   -2.5680   -8.7854 H         1 UNK         0.0739 
     89 H89        24.9125   -1.9644   -5.9472 H         1 UNK         0.3093 
     90 H90        22.1859    0.0002   -7.1190 H         1 UNK         0.0818 
     91 H91        20.7632   -1.3602   -5.6112 H         1 UNK         0.0819 
     92 H92        21.1016   -2.2591   -7.0795 H         1 UNK         0.0819 
     93 H93        21.9615   -2.6558   -5.5983 H         1 UNK         0.0819 
     94 H94        22.8791   -0.6153   -4.4691 H         1 UNK         0.3041 
     95 H95        25.6523    1.5198   -4.0049 H         1 UNK         0.0784 
     96 H96        23.6922    3.0700   -3.9883 H         1 UNK         0.0793 
     97 H97        22.7489    1.8761   -3.1067 H         1 UNK         0.0793 
     98 H98        24.1728    2.6077   -2.3654 H         1 UNK         0.0793 
     99 H99        24.4035    0.2050   -1.9912 H         1 UNK         0.3024 
    100 H100       24.6871   -1.8155   -1.1706 H         1 UNK         0.1171 
    101 H101       25.0226   -4.2440   -1.4825 H         1 UNK         0.0786 
    102 H102       24.0416   -3.6174   -2.7989 H         1 UNK         0.0786 
    103 H103       25.7392   -3.9846   -3.0703 H         1 UNK         0.0786 
    104 H104       27.3482   -2.9059   -1.6151 H         1 UNK         0.2977 
    105 H105       26.7884   -1.2511   -5.6670 H         1 UNK         0.3127 
    106 H106       29.4247   -0.7914   -6.4237 H         1 UNK         0.0770 
    107 H107       27.6917    0.6340   -4.3496 H         1 UNK         0.0814 
    108 H108       29.4314    0.7885   -4.4455 H         1 UNK         0.0814 
    109 H109       28.7137   -0.7766   -4.0911 H         1 UNK         0.0814 
    110 H110       26.6014    1.3438   -6.9794 H         1 UNK         0.2983 
    111 H111       28.1619    3.5866   -7.9109 H         1 UNK         0.0947 
    112 H112       25.9700    4.4361   -8.7117 H         1 UNK         0.0806 
    113 H113       25.8282    3.8322   -7.0679 H         1 UNK         0.0806 
    114 H114       25.2232    2.8719   -8.4162 H         1 UNK         0.0806 
    115 H115       26.8326    0.6945   -9.4682 H         1 UNK         0.3000 
    116 H116       27.3493    1.5842  -12.1978 H         1 UNK         0.0850 
    117 H117       26.6792   -0.7371  -12.7853 H         1 UNK         0.0810 
    118 H118       25.5013   -0.0085  -11.7057 H         1 UNK         0.0810 
    119 H119       26.6523   -1.1915  -11.0884 H         1 UNK         0.0810 
    120 H120       28.8993   -0.6034   -9.8265 H         1 UNK         0.3040 
    121 H121       31.1502   -1.3241  -11.4429 H         1 UNK         0.0766 
    122 H122       30.3440   -2.6516   -9.4812 H         1 UNK         0.0812 
    123 H123       30.7808   -1.3315   -8.3969 H         1 UNK         0.0812 
    124 H124       32.0307   -2.2025   -9.2758 H         1 UNK         0.0812 
    125 H125       30.4498    1.5329   -9.6382 H         1 UNK         0.3205 
    126 H126       31.4610    3.4216   -9.1232 H         1 UNK         0.0754 
    127 H127       33.3931    4.2694  -10.3994 H         1 UNK         0.0769 
    128 H128       32.2435    3.5229  -11.4978 H         1 UNK         0.0769 
    129 H129       33.7235    2.6738  -11.0541 H         1 UNK         0.0769 
    130 H130       31.5383    1.5735   -7.2929 H         1 UNK         0.2981 
    131 H131       34.1610    0.9224   -6.3097 H         1 UNK         0.0541 
    132 H132       32.2409    3.8492   -5.9000 H         1 UNK         0.3459 
    133 H133       33.2347    4.5152   -4.6281 H         1 UNK         0.3459 
    134 H134       31.6805    0.7656   -4.5607 H         1 UNK         0.0612 
    135 H135       31.8139   -0.2999   -5.9278 H         1 UNK         0.0612 
    136 H136       34.1318   -3.0240   -4.9350 H         1 UNK         0.0624 
    137 H137       33.2863   -2.2149   -6.2284 H         1 UNK         0.0624 
@<TRIPOS>BOND
     1    1    2 1    
     2    1   72 1    
     3    1   73 1    
     4    1   74 1    
     5    2    3 2    
     6    2    4 am   BACKBONE|DICT|INTERRES
     7    4    5 1    
     8    4   75 1    
     9    5    6 1    
    10    5   35 1    
    11    5   76 1    
    12    6    7 1    
    13    6   77 1    
    14    6   78 1    
    15    7    8 1    
    16    8    9 1    
    17    8   79 1    
    18    8   80 1    
    19    9   10 ar   
    20    9   14 ar   
    21   10   11 ar   
    22   10   81 1    
    23   11   12 ar   
    24   11   71 1    
    25   12   13 ar   
    26   12   82 1    
    27   13   14 ar   
    28   13   15 1    
    29   14   83 1    
    30   15   16 1    
    31   15   84 1    
    32   15   85 1    
    33   16   17 1    
    34   17   18 1    
    35   17   86 1    
    36   17   87 1    
    37   18   19 1    
    38   18   37 1    
    39   18   88 1    
    40   19   20 am   BACKBONE|DICT|INTERRES
    41   19   89 1    
    42   20   21 2    
    43   20   22 1    
    44   22   23 1    
    45   22   24 1    
    46   22   90 1    
    47   23   91 1    
    48   23   92 1    
    49   23   93 1    
    50   24   25 am   BACKBONE|DICT|INTERRES
    51   24   94 1    
    52   25   26 2    
    53   25   27 1    
    54   27   28 1    
    55   27   29 1    
    56   27   95 1    
    57   28   96 1    
    58   28   97 1    
    59   28   98 1    
    60   29   30 am   BACKBONE|DICT|INTERRES
    61   29   99 1    
    62   30   31 2    
    63   30   32 1    
    64   32   33 1    
    65   32   34 1    
    66   32  100 1    
    67   33  101 1    
    68   33  102 1    
    69   33  103 1    
    70   34   35 am   BACKBONE|DICT|INTERRES
    71   34  104 1    
    72   35   36 2    
    73   37   38 2    
    74   37   39 am   BACKBONE|DICT|INTERRES
    75   39   40 1    
    76   39  105 1    
    77   40   41 1    
    78   40   42 1    
    79   40  106 1    
    80   41  107 1    
    81   41  108 1    
    82   41  109 1    
    83   42   43 2    
    84   42   44 am   BACKBONE|DICT|INTERRES
    85   44   45 1    
    86   44  110 1    
    87   45   46 1    
    88   45   47 1    
    89   45  111 1    
    90   46  112 1    
    91   46  113 1    
    92   46  114 1    
    93   47   48 2    
    94   47   49 am   BACKBONE|DICT|INTERRES
    95   49   50 1    
    96   49  115 1    
    97   50   51 1    
    98   50   52 1    
    99   50  116 1    
   100   51  117 1    
   101   51  118 1    
   102   51  119 1    
   103   52   53 2    
   104   52   54 am   BACKBONE|DICT|INTERRES
   105   54   55 1    
   106   54  120 1    
   107   55   56 1    
   108   55   57 1    
   109   55  121 1    
   110   56  122 1    
   111   56  123 1    
   112   56  124 1    
   113   57   58 2    
   114   57   59 am   BACKBONE|DICT|INTERRES
   115   59   60 1    
   116   59  125 1    
   117   60   61 1    
   118   60   62 1    
   119   60  126 1    
   120   61  127 1    
   121   61  128 1    
   122   61  129 1    
   123   62   63 2    
   124   62   64 am   BACKBONE|DICT|INTERRES
   125   64   65 1    
   126   64  130 1    
   127   65   66 1    
   128   65   69 1    
   129   65  131 1    
   130   66   67 am   BACKBONE|DICT|INTERRES
   131   66   68 2    
   132   67  132 1    
   133   67  133 1    
   134   69   70 1    
   135   69  134 1    
   136   69  135 1    
   137   70   71 1    
   138   71  136 1    
   139   71  137 1    
@<TRIPOS>SUBSTRUCTURE
     1 UNK         1 GROUP             0       ****    0 ROOT    
