@<TRIPOS>MOLECULE
3R137
137   139    1
SMALL
USER_CHARGES


@<TRIPOS>ATOM
      1 CA         25.3957   -6.3369   -4.5766 C.3       0 UNK        -0.2020 
      2 C          25.3750   -5.4013   -3.3780 C.2       0 UNK         0.4855 
      3 O          24.3264   -4.8371   -3.0639 O.2       0 UNK        -0.5197 
      4 N          26.5277   -5.2269   -2.7160 N.am      1 UNK        -0.4892 
      5 CA         26.7439   -4.3360   -1.5692 C.3       1 UNK         0.0835 
      6 C6         28.2004   -4.3960   -1.0046 C.3       12 UNK        -0.0855 
      7 S7         29.5801   -4.9168   -2.1076 S.3       12 UNK        -0.2931 
      8 C8         29.4495   -3.9102   -3.6249 C.3       12 UNK         0.0378 
      9 C9         30.2178   -2.5949   -3.5815 C.ar      12 UNK        -0.0802 
     10 C10        31.1782   -2.3147   -4.5593 C.ar      12 UNK        -0.0944 
     11 C11        31.8513   -1.0891   -4.5661 C.ar      12 UNK        -0.0787 
     12 C12        31.5614   -0.1378   -3.5837 C.ar      12 UNK        -0.0862 
     13 C13        30.5967   -0.4003   -2.6079 C.ar      12 UNK        -0.0733 
     14 C14        29.9313   -1.6294   -2.6130 C.ar      12 UNK        -0.0832 
     15 C15        30.2658    0.6458   -1.5525 C.3       12 UNK         0.0240 
     16 S16        29.2276    1.9886   -2.2168 S.3       12 UNK        -0.2522 
     17 C17        27.7406    1.0835   -2.7600 C.3       12 UNK        -0.0967 
     18 CA         27.6611    0.9809   -4.3069 C.3       5 UNK         0.0660 
     19 N          27.0716   -0.2828   -4.7568 N.am      5 UNK        -0.4015 
     20 C          27.0005   -0.6873   -6.0329 C.2       4 UNK         0.4946 
     21 O          27.5465   -0.0983   -6.9662 O.2       4 UNK        -0.5353 
     22 CA         26.1229   -1.9159   -6.3354 C.3       4 UNK         0.0277 
     23 CB         26.9231   -3.2275   -6.3506 C.3       4 UNK        -0.1981 
     24 N          24.9865   -2.0350   -5.4186 N.am      4 UNK        -0.4209 
     25 C          23.9111   -1.2369   -5.4492 C.2       3 UNK         0.4942 
     26 O          23.7359   -0.3578   -6.2918 O.2       3 UNK        -0.5208 
     27 CA         22.8832   -1.4214   -4.3216 C.3       3 UNK         0.0250 
     28 CB         21.9570   -2.6121   -4.6150 C.3       3 UNK        -0.1990 
     29 N          23.5167   -1.5922   -3.0106 N.am      3 UNK        -0.4232 
     30 C          24.1973   -0.6244   -2.3783 C.2       2 UNK         0.4993 
     31 O          24.3416    0.5125   -2.8277 O.2       2 UNK        -0.5286 
     32 CA         24.8734   -0.9868   -1.0430 C.3       2 UNK         0.0209 
     33 CB         23.9032   -0.7560    0.1263 C.3       2 UNK        -0.1931 
     34 N          25.4088   -2.3528   -0.9717 N.am      2 UNK        -0.4546 
     35 C          26.2787   -2.8878   -1.8405 C.2       1 UNK         0.5154 
     36 O          26.6946   -2.2873   -2.8309 O.2       1 UNK        -0.5181 
     37 C          26.9202    2.1892   -4.9157 C.2       5 UNK         0.5014 
     38 O          27.5575    3.0502   -5.5228 O.2       5 UNK        -0.5248 
     39 N          25.5836    2.2035   -4.7868 N.am      6 UNK        -0.4434 
     40 CA         24.6937    3.2199   -5.3579 C.3       6 UNK         0.0363 
     41 CB         23.2599    2.9886   -4.8557 C.3       6 UNK        -0.1936 
     42 C          24.7286    3.2706   -6.8958 C.2       6 UNK         0.5081 
     43 O          24.6612    4.3600   -7.4653 O.2       6 UNK        -0.5248 
     44 N          24.8676    2.1034   -7.5397 N.am      7 UNK        -0.4718 
     45 CA         25.0532    1.9638   -8.9882 C.3       7 UNK         0.0273 
     46 CB         24.7391    0.5159   -9.3974 C.3       7 UNK        -0.1935 
     47 C          26.4589    2.3647   -9.4814 C.2       7 UNK         0.5018 
     48 O          26.6489    2.4623  -10.6945 O.2       7 UNK        -0.5186 
     49 N          27.4041    2.5815   -8.5532 N.am      8 UNK        -0.4240 
     50 CA         28.8130    2.9247   -8.7640 C.3       8 UNK         0.0235 
     51 CB         28.9536    4.3158   -9.4194 C.3       8 UNK        -0.2000 
     52 C          29.5781    1.8163   -9.5096 C.2       8 UNK         0.4941 
     53 O          30.1517    2.0671  -10.5727 O.2       8 UNK        -0.5273 
     54 N          29.5584    0.6040   -8.9358 N.am      9 UNK        -0.4262 
     55 CA         30.2901   -0.5763   -9.4078 C.3       9 UNK         0.0264 
     56 CB         29.9725   -1.7632   -8.4844 C.3       9 UNK        -0.1955 
     57 C          31.8138   -0.3634   -9.5113 C.2       9 UNK         0.5031 
     58 O          32.3883    0.4433   -8.7738 O.2       9 UNK        -0.5390 
     59 N          32.4406   -1.1093  -10.4285 N.am      10 UNK        -0.4204 
     60 CA         33.8523   -0.9990  -10.7969 C.3       10 UNK         0.0237 
     61 CB         34.0434   -1.6040  -12.2013 C.3       10 UNK        -0.1985 
     62 C          34.8059   -1.6189   -9.7564 C.2       10 UNK         0.4970 
     63 O          35.4269   -2.6485  -10.0284 O.2       10 UNK        -0.4914 
     64 N          34.9318   -0.9637   -8.5966 N.am      11 UNK        -0.4285 
     65 CA         35.9899   -1.2291   -7.6045 C.3       11 UNK         0.1007 
     66 C          37.4124   -0.7841   -8.0622 C.2       11 UNK         0.5703 
     67 N          37.5574    0.0596   -9.0782 N.am      11 UNK        -0.7361 
     68 O          38.4056   -1.2223   -7.4863 O.2       11 UNK        -0.4986 
     69 C69        35.6459   -0.6196   -6.2194 C.3       12 UNK        -0.0947 
     70 S70        34.4538   -1.6254   -5.2792 S.3       12 UNK        -0.2240 
     71 C71        32.8842   -0.7878   -5.6394 C.3       12 UNK         0.0194 
     72 H72        26.3962   -6.7182   -4.7803 H         1 UNK         0.0906 
     73 H73        24.7369   -7.1865   -4.3996 H         1 UNK         0.0906 
     74 H74        25.0452   -5.8139   -5.4660 H         1 UNK         0.0906 
     75 H75        27.3566   -5.7176   -3.0217 H         1 UNK         0.3140 
     76 H76        26.0877   -4.7227   -0.7862 H         1 UNK         0.1085 
     77 H77        28.4799   -3.4662   -0.5067 H         1 UNK         0.0836 
     78 H78        28.2043   -5.1285   -0.1957 H         1 UNK         0.0836 
     79 H79        28.4127   -3.7008   -3.8465 H         1 UNK         0.0731 
     80 H80        29.8073   -4.5219   -4.4544 H         1 UNK         0.0731 
     81 H81        31.4014   -3.0459   -5.3243 H         1 UNK         0.1312 
     82 H82        32.0759    0.8135   -3.5841 H         1 UNK         0.1406 
     83 H83        29.1742   -1.8276   -1.8709 H         1 UNK         0.1631 
     84 H84        31.1908    1.0743   -1.1641 H         1 UNK         0.0717 
     85 H85        29.7608    0.1896   -0.6995 H         1 UNK         0.0717 
     86 H86        27.7579    0.0929   -2.3088 H         1 UNK         0.0934 
     87 H87        26.8602    1.5684   -2.3336 H         1 UNK         0.0934 
     88 H88        28.6770    0.9848   -4.7093 H         1 UNK         0.0739 
     89 H89        26.6953   -0.8966   -4.0384 H         1 UNK         0.3093 
     90 H90        25.7302   -1.7705   -7.3429 H         1 UNK         0.0818 
     91 H91        26.9268   -3.7070   -5.3765 H         1 UNK         0.0819 
     92 H92        26.4862   -3.9373   -7.0531 H         1 UNK         0.0819 
     93 H93        27.9603   -3.0739   -6.6492 H         1 UNK         0.0819 
     94 H94        25.0771   -2.6894   -4.6535 H         1 UNK         0.3041 
     95 H95        22.2707   -0.5178   -4.2832 H         1 UNK         0.0784 
     96 H96        21.4543   -2.4862   -5.5750 H         1 UNK         0.0793 
     97 H97        22.5050   -3.5541   -4.6557 H         1 UNK         0.0793 
     98 H98        21.1819   -2.7081   -3.8546 H         1 UNK         0.0793 
     99 H99        23.4855   -2.5161   -2.5991 H         1 UNK         0.3024 
    100 H100       25.7163   -0.3045   -0.9189 H         1 UNK         0.1171 
    101 H101       23.5055    0.2600    0.1089 H         1 UNK         0.0786 
    102 H102       24.3996   -0.8894    1.0877 H         1 UNK         0.0786 
    103 H103       23.0536   -1.4390    0.0879 H         1 UNK         0.0786 
    104 H104       25.0948   -2.9132   -0.1921 H         1 UNK         0.2977 
    105 H105       25.1380    1.4784   -4.2268 H         1 UNK         0.3127 
    106 H106       25.0302    4.1918   -4.9909 H         1 UNK         0.0770 
    107 H107       22.8759    2.0163   -5.1663 H         1 UNK         0.0814 
    108 H108       22.5815    3.7483   -5.2458 H         1 UNK         0.0814 
    109 H109       23.2085    3.0349   -3.7677 H         1 UNK         0.0814 
    110 H110       24.8260    1.2444   -7.0001 H         1 UNK         0.2983 
    111 H111       24.3372    2.6209   -9.4865 H         1 UNK         0.0947 
    112 H112       24.7576    0.4044  -10.4823 H         1 UNK         0.0806 
    113 H113       23.7503    0.2080   -9.0569 H         1 UNK         0.0806 
    114 H114       25.4708   -0.1803   -8.9890 H         1 UNK         0.0806 
    115 H115       27.1407    2.4522   -7.5831 H         1 UNK         0.3000 
    116 H116       29.2609    2.9877   -7.7710 H         1 UNK         0.0850 
    117 H117       30.0016    4.6114   -9.4803 H         1 UNK         0.0810 
    118 H118       28.4340    5.0795   -8.8407 H         1 UNK         0.0810 
    119 H119       28.5534    4.3327  -10.4335 H         1 UNK         0.0810 
    120 H120       28.9834    0.4713   -8.1066 H         1 UNK         0.3040 
    121 H121       29.9143   -0.8045  -10.4073 H         1 UNK         0.0766 
    122 H122       28.9167   -2.0260   -8.5448 H         1 UNK         0.0812 
    123 H123       30.2022   -1.5361   -7.4427 H         1 UNK         0.0812 
    124 H124       30.5412   -2.6519   -8.7610 H         1 UNK         0.0812 
    125 H125       31.8982   -1.7806  -10.9533 H         1 UNK         0.3205 
    126 H126       34.1030    0.0619  -10.8662 H         1 UNK         0.0754 
    127 H127       35.0814   -1.5182  -12.5263 H         1 UNK         0.0769 
    128 H128       33.4324   -1.0879  -12.9424 H         1 UNK         0.0769 
    129 H129       33.7800   -2.6623  -12.2272 H         1 UNK         0.0769 
    130 H130       34.3241   -0.1693   -8.4284 H         1 UNK         0.2981 
    131 H131       36.0582   -2.3121   -7.4831 H         1 UNK         0.0541 
    132 H132       36.7542    0.4386   -9.5520 H         1 UNK         0.3459 
    133 H133       38.4854    0.3320   -9.3620 H         1 UNK         0.3459 
    134 H134       36.5345   -0.5590   -5.5878 H         1 UNK         0.0612 
    135 H135       35.2892    0.4067   -6.3202 H         1 UNK         0.0612 
    136 H136       32.5198   -1.1262   -6.6089 H         1 UNK         0.0624 
    137 H137       33.0393    0.2888   -5.7219 H         1 UNK         0.0624 
@<TRIPOS>BOND
     1    1    2 1    
     2    1   72 1    
     3    1   73 1    
     4    1   74 1    
     5    2    3 2    
     6    2    4 am   BACKBONE|DICT|INTERRES
     7    4    5 1    
     8    4   75 1    
     9    5    6 1    
    10    5   35 1    
    11    5   76 1    
    12    6    7 1    
    13    6   77 1    
    14    6   78 1    
    15    7    8 1    
    16    8    9 1    
    17    8   79 1    
    18    8   80 1    
    19    9   10 ar   
    20    9   14 ar   
    21   10   11 ar   
    22   10   81 1    
    23   11   12 ar   
    24   11   71 1    
    25   12   13 ar   
    26   12   82 1    
    27   13   14 ar   
    28   13   15 1    
    29   14   83 1    
    30   15   16 1    
    31   15   84 1    
    32   15   85 1    
    33   16   17 1    
    34   17   18 1    
    35   17   86 1    
    36   17   87 1    
    37   18   19 1    
    38   18   37 1    
    39   18   88 1    
    40   19   20 am   BACKBONE|DICT|INTERRES
    41   19   89 1    
    42   20   21 2    
    43   20   22 1    
    44   22   23 1    
    45   22   24 1    
    46   22   90 1    
    47   23   91 1    
    48   23   92 1    
    49   23   93 1    
    50   24   25 am   BACKBONE|DICT|INTERRES
    51   24   94 1    
    52   25   26 2    
    53   25   27 1    
    54   27   28 1    
    55   27   29 1    
    56   27   95 1    
    57   28   96 1    
    58   28   97 1    
    59   28   98 1    
    60   29   30 am   BACKBONE|DICT|INTERRES
    61   29   99 1    
    62   30   31 2    
    63   30   32 1    
    64   32   33 1    
    65   32   34 1    
    66   32  100 1    
    67   33  101 1    
    68   33  102 1    
    69   33  103 1    
    70   34   35 am   BACKBONE|DICT|INTERRES
    71   34  104 1    
    72   35   36 2    
    73   37   38 2    
    74   37   39 am   BACKBONE|DICT|INTERRES
    75   39   40 1    
    76   39  105 1    
    77   40   41 1    
    78   40   42 1    
    79   40  106 1    
    80   41  107 1    
    81   41  108 1    
    82   41  109 1    
    83   42   43 2    
    84   42   44 am   BACKBONE|DICT|INTERRES
    85   44   45 1    
    86   44  110 1    
    87   45   46 1    
    88   45   47 1    
    89   45  111 1    
    90   46  112 1    
    91   46  113 1    
    92   46  114 1    
    93   47   48 2    
    94   47   49 am   BACKBONE|DICT|INTERRES
    95   49   50 1    
    96   49  115 1    
    97   50   51 1    
    98   50   52 1    
    99   50  116 1    
   100   51  117 1    
   101   51  118 1    
   102   51  119 1    
   103   52   53 2    
   104   52   54 am   BACKBONE|DICT|INTERRES
   105   54   55 1    
   106   54  120 1    
   107   55   56 1    
   108   55   57 1    
   109   55  121 1    
   110   56  122 1    
   111   56  123 1    
   112   56  124 1    
   113   57   58 2    
   114   57   59 am   BACKBONE|DICT|INTERRES
   115   59   60 1    
   116   59  125 1    
   117   60   61 1    
   118   60   62 1    
   119   60  126 1    
   120   61  127 1    
   121   61  128 1    
   122   61  129 1    
   123   62   63 2    
   124   62   64 am   BACKBONE|DICT|INTERRES
   125   64   65 1    
   126   64  130 1    
   127   65   66 1    
   128   65   69 1    
   129   65  131 1    
   130   66   67 am   BACKBONE|DICT|INTERRES
   131   66   68 2    
   132   67  132 1    
   133   67  133 1    
   134   69   70 1    
   135   69  134 1    
   136   69  135 1    
   137   70   71 1    
   138   71  136 1    
   139   71  137 1    
@<TRIPOS>SUBSTRUCTURE
     1 UNK         1 GROUP             0       ****    0 ROOT    
