@<TRIPOS>MOLECULE
3R137
137   139    1
SMALL
USER_CHARGES


@<TRIPOS>ATOM
      1 CA         27.0843   -3.8661    2.9613 C.3       0 UNK        -0.2020 
      2 C          27.8386   -3.4893    1.6949 C.2       0 UNK         0.4855 
      3 O          28.8509   -2.7920    1.7699 O.2       0 UNK        -0.5197 
      4 N          27.3605   -3.9531    0.5339 N.am      1 UNK        -0.4892 
      5 CA         27.9238   -3.6450   -0.7842 C.3       1 UNK         0.0835 
      6 C6         27.3843   -4.6008   -1.8719 C.3       12 UNK        -0.0855 
      7 S7         27.9581   -6.3229   -1.6549 S.3       12 UNK        -0.2931 
      8 C8         29.7501   -6.2258   -2.0210 C.3       12 UNK         0.0378 
      9 C9         30.0712   -5.3643   -3.2368 C.ar      12 UNK        -0.0802 
     10 C10        30.9202   -4.2589   -3.1164 C.ar      12 UNK        -0.0944 
     11 C11        31.1680   -3.4226   -4.2108 C.ar      12 UNK        -0.0787 
     12 C12        30.5522   -3.7070   -5.4359 C.ar      12 UNK        -0.0862 
     13 C13        29.7003   -4.8081   -5.5670 C.ar      12 UNK        -0.0733 
     14 C14        29.4833   -5.6460   -4.4721 C.ar      12 UNK        -0.0832 
     15 C15        28.9679   -5.0719   -6.8724 C.3       12 UNK         0.0240 
     16 S16        27.3219   -4.2912   -6.8598 S.3       12 UNK        -0.2522 
     17 C17        27.7893   -2.5544   -7.1409 C.3       12 UNK        -0.0967 
     18 CA         26.5760   -1.6056   -7.2645 C.3       5 UNK         0.0660 
     19 N          25.8511   -1.4867   -5.9945 N.am      5 UNK        -0.4015 
     20 C          24.5661   -1.8224   -5.8108 C.2       4 UNK         0.4946 
     21 O          23.8263   -2.2307   -6.7075 O.2       4 UNK        -0.5353 
     22 CA         23.9947   -1.6951   -4.3841 C.3       4 UNK         0.0277 
     23 CB         24.1448   -3.0297   -3.6372 C.3       4 UNK        -0.1981 
     24 N          24.6116   -0.6315   -3.5887 N.am      4 UNK        -0.4209 
     25 C          24.5440    0.6764   -3.8746 C.2       3 UNK         0.4942 
     26 O          23.8787    1.1418   -4.7997 O.2       3 UNK        -0.5208 
     27 CA         25.3897    1.6304   -3.0113 C.3       3 UNK         0.0250 
     28 CB         24.5250    2.2481   -1.9008 C.3       3 UNK        -0.1990 
     29 N          26.5908    1.0393   -2.4077 N.am      3 UNK        -0.4232 
     30 C          27.5545    0.3402   -3.0266 C.2       2 UNK         0.4993 
     31 O          27.5271    0.0374   -4.2207 O.2       2 UNK        -0.5286 
     32 CA         28.7405   -0.1248   -2.1651 C.3       2 UNK         0.0209 
     33 CB         28.9663    0.7360   -0.9017 C.3       2 UNK        -0.1931 
     34 N          28.6628   -1.5450   -1.8018 N.am      2 UNK        -0.4546 
     35 C          27.6605   -2.1753   -1.1697 C.2       1 UNK         0.5154 
     36 O          26.5715   -1.6600   -0.9011 O.2       1 UNK        -0.5181 
     37 C          27.0502   -0.2396   -7.7968 C.2       5 UNK         0.5014 
     38 O          27.4680   -0.1835   -8.9542 O.2       5 UNK        -0.5248 
     39 N          26.9982    0.8268   -6.9824 N.am      6 UNK        -0.4434 
     40 CA         27.5340    2.1702   -7.2598 C.3       6 UNK         0.0363 
     41 CB         27.2714    3.0753   -6.0459 C.3       6 UNK        -0.1936 
     42 C          27.0427    2.8602   -8.5480 C.2       6 UNK         0.5081 
     43 O          27.6763    3.8154   -8.9974 O.2       6 UNK        -0.5248 
     44 N          25.9413    2.3715   -9.1313 N.am      7 UNK        -0.4718 
     45 CA         25.4502    2.7720  -10.4510 C.3       7 UNK         0.0273 
     46 CB         24.0259    2.2243  -10.6381 C.3       7 UNK        -0.1935 
     47 C          26.3581    2.3168  -11.6130 C.2       7 UNK         0.5018 
     48 O          26.2626    2.8978  -12.6952 O.2       7 UNK        -0.5186 
     49 N          27.1982    1.2953  -11.3878 N.am      8 UNK        -0.4240 
     50 CA         28.0992    0.7174  -12.3869 C.3       8 UNK         0.0235 
     51 CB         27.5294   -0.6270  -12.8712 C.3       8 UNK        -0.2000 
     52 C          29.5309    0.5393  -11.8595 C.2       8 UNK         0.4941 
     53 O          30.4745    0.8308  -12.5963 O.2       8 UNK        -0.5273 
     54 N          29.6861    0.0485  -10.6222 N.am      9 UNK        -0.4262 
     55 CA         30.9859   -0.2105  -10.0009 C.3       9 UNK         0.0264 
     56 CB         30.8295   -1.2820   -8.9098 C.3       9 UNK        -0.1955 
     57 C          31.5671    1.0701   -9.3917 C.2       9 UNK         0.5031 
     58 O          30.8359    1.8239   -8.7465 O.2       9 UNK        -0.5390 
     59 N          32.8859    1.2548   -9.5388 N.am      10 UNK        -0.4204 
     60 CA         33.6387    2.3852   -8.9808 C.3       10 UNK         0.0237 
     61 CB         35.0838    2.3434   -9.5039 C.3       10 UNK        -0.1985 
     62 C          33.6241    2.4465   -7.4416 C.2       10 UNK         0.4970 
     63 O          33.7183    3.5409   -6.8846 O.2       10 UNK        -0.4914 
     64 N          33.4928    1.2835   -6.7902 N.am      11 UNK        -0.4285 
     65 CA         33.3046    1.1529   -5.3395 C.3       11 UNK         0.1007 
     66 C          31.8593    1.4553   -4.8413 C.2       11 UNK         0.5703 
     67 N          30.8789    1.6833   -5.7083 N.am      11 UNK        -0.7361 
     68 O          31.6257    1.4934   -3.6362 O.2       11 UNK        -0.4986 
     69 C69        33.8519   -0.2022   -4.8152 C.3       12 UNK        -0.0947 
     70 S70        33.0011   -1.6767   -5.4815 S.3       12 UNK        -0.2240 
     71 C71        32.0415   -2.1845   -4.0143 C.3       12 UNK         0.0194 
     72 H72        26.7326   -2.9683    3.4691 H         1 UNK         0.0906 
     73 H73        26.2206   -4.4963    2.7500 H         1 UNK         0.0906 
     74 H74        27.7405   -4.4079    3.6420 H         1 UNK         0.0906 
     75 H75        26.5197   -4.5126    0.5284 H         1 UNK         0.3140 
     76 H76        29.0054   -3.7744   -0.7127 H         1 UNK         0.1085 
     77 H77        26.2932   -4.6088   -1.8554 H         1 UNK         0.0836 
     78 H78        27.6550   -4.2594   -2.8725 H         1 UNK         0.0836 
     79 H79        30.2661   -5.8520   -1.1354 H         1 UNK         0.0731 
     80 H80        30.1303   -7.2342   -2.1897 H         1 UNK         0.0731 
     81 H81        31.3749   -4.0362   -2.1606 H         1 UNK         0.1312 
     82 H82        30.7085   -3.0553   -6.2838 H         1 UNK         0.1406 
     83 H83        28.8116   -6.4891   -4.5653 H         1 UNK         0.1631 
     84 H84        28.8481   -6.1464   -7.0196 H         1 UNK         0.0717 
     85 H85        29.5487   -4.7107   -7.7225 H         1 UNK         0.0717 
     86 H86        28.4428   -2.2184   -6.3345 H         1 UNK         0.0934 
     87 H87        28.3819   -2.5391   -8.0564 H         1 UNK         0.0934 
     88 H88        25.9165   -2.0065   -8.0370 H         1 UNK         0.0739 
     89 H89        26.3906   -1.1391   -5.2058 H         1 UNK         0.3093 
     90 H90        22.9304   -1.4672   -4.4736 H         1 UNK         0.0818 
     91 H91        23.7124   -2.9812   -2.6376 H         1 UNK         0.0819 
     92 H92        23.6381   -3.8346   -4.1715 H         1 UNK         0.0819 
     93 H93        25.1924   -3.3144   -3.5397 H         1 UNK         0.0819 
     94 H94        25.1776   -0.9158   -2.7990 H         1 UNK         0.3041 
     95 H95        25.7253    2.4384   -3.6614 H         1 UNK         0.0784 
     96 H96        23.6325    2.7196   -2.3154 H         1 UNK         0.0793 
     97 H97        24.1933    1.4962   -1.1834 H         1 UNK         0.0793 
     98 H98        25.0693    3.0183   -1.3539 H         1 UNK         0.0793 
     99 H99        26.6966    1.1789   -1.4132 H         1 UNK         0.3024 
    100 H100       29.6206   -0.0107   -2.7981 H         1 UNK         0.1171 
    101 H101       29.0299    1.7960   -1.1524 H         1 UNK         0.0786 
    102 H102       29.9056    0.4700   -0.4164 H         1 UNK         0.0786 
    103 H103       28.1731    0.6119   -0.1636 H         1 UNK         0.0786 
    104 H104       29.4841   -2.0849   -2.0340 H         1 UNK         0.2977 
    105 H105       26.7142    0.6647   -6.0245 H         1 UNK         0.3127 
    106 H106       28.6125    2.0566   -7.3704 H         1 UNK         0.0770 
    107 H107       26.2028    3.2064   -5.8724 H         1 UNK         0.0814 
    108 H108       27.7190    2.6704   -5.1390 H         1 UNK         0.0814 
    109 H109       27.7000    4.0672   -6.1968 H         1 UNK         0.0814 
    110 H110       25.4801    1.5902   -8.6883 H         1 UNK         0.2983 
    111 H111       25.4066    3.8631  -10.4813 H         1 UNK         0.0947 
    112 H112       23.6131    2.5311  -11.6003 H         1 UNK         0.0806 
    113 H113       23.3521    2.5960   -9.8659 H         1 UNK         0.0806 
    114 H114       24.0053    1.1341  -10.6079 H         1 UNK         0.0806 
    115 H115       27.2207    0.8798  -10.4595 H         1 UNK         0.3000 
    116 H116       28.1704    1.3823  -13.2505 H         1 UNK         0.0850 
    117 H117       28.1874   -1.0889  -13.6085 H         1 UNK         0.0810 
    118 H118       26.5556   -0.4956  -13.3432 H         1 UNK         0.0810 
    119 H119       27.4099   -1.3338  -12.0489 H         1 UNK         0.0810 
    120 H120       28.8676   -0.1108  -10.0377 H         1 UNK         0.3040 
    121 H121       31.6705   -0.5942  -10.7607 H         1 UNK         0.0766 
    122 H122       31.7958   -1.5438   -8.4771 H         1 UNK         0.0812 
    123 H123       30.3996   -2.1985   -9.3135 H         1 UNK         0.0812 
    124 H124       30.1941   -0.9343   -8.0941 H         1 UNK         0.0812 
    125 H125       33.4144    0.5815  -10.0756 H         1 UNK         0.3205 
    126 H126       33.1699    3.3023   -9.3441 H         1 UNK         0.0754 
    127 H127       35.6603    3.1891   -9.1259 H         1 UNK         0.0769 
    128 H128       35.1143    2.3954  -10.5925 H         1 UNK         0.0769 
    129 H129       35.6001    1.4335   -9.1950 H         1 UNK         0.0769 
    130 H130       33.4178    0.4299   -7.3218 H         1 UNK         0.2981 
    131 H131       33.9211    1.9225   -4.8711 H         1 UNK         0.0541 
    132 H132       31.0451    1.6929   -6.7079 H         1 UNK         0.3459 
    133 H133       29.9574    1.8710   -5.3527 H         1 UNK         0.3459 
    134 H134       33.8268   -0.2230   -3.7243 H         1 UNK         0.0612 
    135 H135       34.9074   -0.2889   -5.0771 H         1 UNK         0.0612 
    136 H136       31.3989   -1.3581   -3.7125 H         1 UNK         0.0624 
    137 H137       32.7414   -2.3538   -3.1945 H         1 UNK         0.0624 
@<TRIPOS>BOND
     1    1    2 1    
     2    1   72 1    
     3    1   73 1    
     4    1   74 1    
     5    2    3 2    
     6    2    4 am   BACKBONE|DICT|INTERRES
     7    4    5 1    
     8    4   75 1    
     9    5    6 1    
    10    5   35 1    
    11    5   76 1    
    12    6    7 1    
    13    6   77 1    
    14    6   78 1    
    15    7    8 1    
    16    8    9 1    
    17    8   79 1    
    18    8   80 1    
    19    9   10 ar   
    20    9   14 ar   
    21   10   11 ar   
    22   10   81 1    
    23   11   12 ar   
    24   11   71 1    
    25   12   13 ar   
    26   12   82 1    
    27   13   14 ar   
    28   13   15 1    
    29   14   83 1    
    30   15   16 1    
    31   15   84 1    
    32   15   85 1    
    33   16   17 1    
    34   17   18 1    
    35   17   86 1    
    36   17   87 1    
    37   18   19 1    
    38   18   37 1    
    39   18   88 1    
    40   19   20 am   BACKBONE|DICT|INTERRES
    41   19   89 1    
    42   20   21 2    
    43   20   22 1    
    44   22   23 1    
    45   22   24 1    
    46   22   90 1    
    47   23   91 1    
    48   23   92 1    
    49   23   93 1    
    50   24   25 am   BACKBONE|DICT|INTERRES
    51   24   94 1    
    52   25   26 2    
    53   25   27 1    
    54   27   28 1    
    55   27   29 1    
    56   27   95 1    
    57   28   96 1    
    58   28   97 1    
    59   28   98 1    
    60   29   30 am   BACKBONE|DICT|INTERRES
    61   29   99 1    
    62   30   31 2    
    63   30   32 1    
    64   32   33 1    
    65   32   34 1    
    66   32  100 1    
    67   33  101 1    
    68   33  102 1    
    69   33  103 1    
    70   34   35 am   BACKBONE|DICT|INTERRES
    71   34  104 1    
    72   35   36 2    
    73   37   38 2    
    74   37   39 am   BACKBONE|DICT|INTERRES
    75   39   40 1    
    76   39  105 1    
    77   40   41 1    
    78   40   42 1    
    79   40  106 1    
    80   41  107 1    
    81   41  108 1    
    82   41  109 1    
    83   42   43 2    
    84   42   44 am   BACKBONE|DICT|INTERRES
    85   44   45 1    
    86   44  110 1    
    87   45   46 1    
    88   45   47 1    
    89   45  111 1    
    90   46  112 1    
    91   46  113 1    
    92   46  114 1    
    93   47   48 2    
    94   47   49 am   BACKBONE|DICT|INTERRES
    95   49   50 1    
    96   49  115 1    
    97   50   51 1    
    98   50   52 1    
    99   50  116 1    
   100   51  117 1    
   101   51  118 1    
   102   51  119 1    
   103   52   53 2    
   104   52   54 am   BACKBONE|DICT|INTERRES
   105   54   55 1    
   106   54  120 1    
   107   55   56 1    
   108   55   57 1    
   109   55  121 1    
   110   56  122 1    
   111   56  123 1    
   112   56  124 1    
   113   57   58 2    
   114   57   59 am   BACKBONE|DICT|INTERRES
   115   59   60 1    
   116   59  125 1    
   117   60   61 1    
   118   60   62 1    
   119   60  126 1    
   120   61  127 1    
   121   61  128 1    
   122   61  129 1    
   123   62   63 2    
   124   62   64 am   BACKBONE|DICT|INTERRES
   125   64   65 1    
   126   64  130 1    
   127   65   66 1    
   128   65   69 1    
   129   65  131 1    
   130   66   67 am   BACKBONE|DICT|INTERRES
   131   66   68 2    
   132   67  132 1    
   133   67  133 1    
   134   69   70 1    
   135   69  134 1    
   136   69  135 1    
   137   70   71 1    
   138   71  136 1    
   139   71  137 1    
@<TRIPOS>SUBSTRUCTURE
     1 UNK         1 GROUP             0       ****    0 ROOT    
