@<TRIPOS>MOLECULE
3R137
137   139    1
SMALL
USER_CHARGES


@<TRIPOS>ATOM
      1 CA         25.1375   -5.0549   -8.2586 C.3       0 UNK        -0.2020 
      2 C          25.1531   -5.7777   -6.9201 C.2       0 UNK         0.4855 
      3 O          24.1511   -6.3821   -6.5382 O.2       0 UNK        -0.5197 
      4 N          26.2868   -5.7224   -6.2097 N.am      1 UNK        -0.4892 
      5 CA         26.4938   -6.2976   -4.8740 C.3       1 UNK         0.0835 
      6 C6         27.9889   -6.2862   -4.4675 C.3       12 UNK        -0.0855 
      7 S7         28.7977   -4.6673   -4.7168 S.3       12 UNK        -0.2931 
      8 C8         29.2352   -4.1989   -3.0106 C.3       12 UNK         0.0378 
      9 C9         29.9540   -2.8558   -2.9631 C.ar      12 UNK        -0.0802 
     10 C10        31.0390   -2.6085   -3.8089 C.ar      12 UNK        -0.0944 
     11 C11        31.6765   -1.3661   -3.8270 C.ar      12 UNK        -0.0787 
     12 C12        31.2527   -0.3794   -2.9283 C.ar      12 UNK        -0.0862 
     13 C13        30.1823   -0.6164   -2.0598 C.ar      12 UNK        -0.0733 
     14 C14        29.5324   -1.8543   -2.0842 C.ar      12 UNK        -0.0832 
     15 C15        29.6987    0.4845   -1.1279 C.3       12 UNK         0.0240 
     16 S16        28.1771    1.2702   -1.7484 S.3       12 UNK        -0.2522 
     17 C17        28.7208    1.9453   -3.3546 C.3       12 UNK        -0.0967 
     18 CA         28.3562    0.9991   -4.5324 C.3       5 UNK         0.0660 
     19 N          26.9033    0.8486   -4.7060 N.am      5 UNK        -0.4015 
     20 C          26.0257    1.7011   -5.2669 C.2       4 UNK         0.4946 
     21 O          26.3433    2.6884   -5.9308 O.2       4 UNK        -0.5353 
     22 CA         24.5237    1.4345   -5.0263 C.3       4 UNK         0.0277 
     23 CB         23.8660    0.7585   -6.2402 C.3       4 UNK        -0.1981 
     24 N          24.2749    0.6224   -3.8350 N.am      4 UNK        -0.4209 
     25 C          24.5008    1.0155   -2.5741 C.2       3 UNK         0.4942 
     26 O          24.7274    2.1859   -2.2646 O.2       3 UNK        -0.5208 
     27 CA         24.5053   -0.0680   -1.4723 C.3       3 UNK         0.0250 
     28 CB         23.5043    0.2824   -0.3570 C.3       3 UNK        -0.1990 
     29 N          24.2475   -1.4456   -1.9173 N.am      3 UNK        -0.4232 
     30 C          24.9772   -2.1755   -2.7736 C.2       2 UNK         0.4993 
     31 O          25.9704   -1.7531   -3.3730 O.2       2 UNK        -0.5286 
     32 CA         24.4480   -3.5880   -3.0476 C.3       2 UNK         0.0209 
     33 CB         23.0850   -3.5424   -3.7671 C.3       2 UNK        -0.1931 
     34 N          25.3873   -4.3380   -3.8764 N.am      2 UNK        -0.4546 
     35 C          25.5946   -5.6581   -3.7944 C.2       1 UNK         0.5154 
     36 O          25.0795   -6.3776   -2.9362 O.2       1 UNK        -0.5181 
     37 C          29.1082    1.3573   -5.8291 C.2       5 UNK         0.5014 
     38 O          29.5530    0.4579   -6.5465 O.2       5 UNK        -0.5248 
     39 N          29.2205    2.6592   -6.1272 N.am      6 UNK        -0.4434 
     40 CA         29.7911    3.1970   -7.3629 C.3       6 UNK         0.0363 
     41 CB         29.7897    4.7319   -7.3032 C.3       6 UNK        -0.1936 
     42 C          29.0698    2.7028   -8.6265 C.2       6 UNK         0.5081 
     43 O          29.7299    2.4095   -9.6219 O.2       6 UNK        -0.5248 
     44 N          27.7407    2.5694   -8.5449 N.am      7 UNK        -0.4718 
     45 CA         26.9084    2.0035   -9.6070 C.3       7 UNK         0.0273 
     46 CB         25.5377    2.6996   -9.5880 C.3       7 UNK        -0.1935 
     47 C          26.7676    0.4721   -9.5085 C.2       7 UNK         0.5018 
     48 O          26.2538   -0.1327  -10.4502 O.2       7 UNK        -0.5186 
     49 N          27.2121   -0.1328   -8.3957 N.am      8 UNK        -0.4240 
     50 CA         27.1950   -1.5816   -8.1872 C.3       8 UNK         0.0235 
     51 CB         27.0390   -1.9166   -6.6935 C.3       8 UNK        -0.2000 
     52 C          28.4553   -2.2485   -8.7524 C.2       8 UNK         0.4941 
     53 O          28.3293   -3.2281   -9.4880 O.2       8 UNK        -0.5273 
     54 N          29.6391   -1.7326   -8.3885 N.am      9 UNK        -0.4262 
     55 CA         30.9244   -2.3656   -8.7006 C.3       9 UNK         0.0264 
     56 CB         31.2210   -3.4795   -7.6771 C.3       9 UNK        -0.1955 
     57 C          32.0783   -1.3585   -8.8413 C.2       9 UNK         0.5031 
     58 O          33.2135   -1.6889   -8.4953 O.2       9 UNK        -0.5390 
     59 N          31.7867   -0.1653   -9.3804 N.am      10 UNK        -0.4204 
     60 CA         32.7550    0.8526   -9.8193 C.3       10 UNK         0.0237 
     61 CB         33.5766    0.3344  -11.0210 C.3       10 UNK        -0.1985 
     62 C          33.6460    1.4455   -8.7061 C.2       10 UNK         0.4970 
     63 O          34.7632    1.8803   -8.9914 O.2       10 UNK        -0.4914 
     64 N          33.1286    1.5067   -7.4725 N.am      11 UNK        -0.4285 
     65 CA         33.7568    2.1981   -6.3297 C.3       11 UNK         0.1007 
     66 C          33.7368    3.7579   -6.4073 C.2       11 UNK         0.5703 
     67 N          33.1931    4.3800   -7.4467 N.am      11 UNK        -0.7361 
     68 O          34.2453    4.4234   -5.5084 O.2       11 UNK        -0.4986 
     69 C69        33.1921    1.6763   -4.9789 C.3       12 UNK        -0.0947 
     70 S70        34.0089    0.1324   -4.4522 S.3       12 UNK        -0.2240 
     71 C71        32.7644   -1.1279   -4.8755 C.3       12 UNK         0.0194 
     72 H72        26.1332   -4.7258   -8.5552 H         1 UNK         0.0906 
     73 H73        24.7566   -5.7142   -9.0381 H         1 UNK         0.0906 
     74 H74        24.4901   -4.1800   -8.2050 H         1 UNK         0.0906 
     75 H75        27.0861   -5.2252   -6.5776 H         1 UNK         0.3140 
     76 H76        26.1850   -7.3439   -4.9349 H         1 UNK         0.1085 
     77 H77        28.5288   -7.0122   -5.0774 H         1 UNK         0.0836 
     78 H78        28.1190   -6.6237   -3.4372 H         1 UNK         0.0836 
     79 H79        29.8815   -4.9632   -2.5769 H         1 UNK         0.0731 
     80 H80        28.3246   -4.1710   -2.4096 H         1 UNK         0.0731 
     81 H81        31.3659   -3.3873   -4.4825 H         1 UNK         0.1312 
     82 H82        31.7312    0.5880   -2.9142 H         1 UNK         0.1406 
     83 H83        28.6862   -2.0263   -1.4326 H         1 UNK         0.1631 
     84 H84        30.4688    1.2451   -0.9901 H         1 UNK         0.0717 
     85 H85        29.5030    0.0656   -0.1398 H         1 UNK         0.0717 
     86 H86        28.2483    2.9209   -3.4814 H         1 UNK         0.0934 
     87 H87        29.7952    2.1333   -3.3104 H         1 UNK         0.0934 
     88 H88        28.7060   -0.0011   -4.2765 H         1 UNK         0.0739 
     89 H89        26.5206    0.0420   -4.2214 H         1 UNK         0.3093 
     90 H90        24.0455    2.4051   -4.8779 H         1 UNK         0.0818 
     91 H91        24.0038    1.3509   -7.1426 H         1 UNK         0.0819 
     92 H92        24.2749   -0.2315   -6.4352 H         1 UNK         0.0819 
     93 H93        22.7911    0.6499   -6.0945 H         1 UNK         0.0819 
     94 H94        24.0982   -0.3595   -3.9868 H         1 UNK         0.3041 
     95 H95        25.5076   -0.0576   -1.0400 H         1 UNK         0.0784 
     96 H96        23.6997    1.2752    0.0511 H         1 UNK         0.0793 
     97 H97        22.4767    0.2773   -0.7226 H         1 UNK         0.0793 
     98 H98        23.5709   -0.4208    0.4734 H         1 UNK         0.0793 
     99 H99        23.4335   -1.8816   -1.5078 H         1 UNK         0.3024 
    100 H100       24.3343   -4.0843   -2.0808 H         1 UNK         0.1171 
    101 H101       22.3292   -3.0302   -3.1709 H         1 UNK         0.0786 
    102 H102       23.1539   -3.0262   -4.7256 H         1 UNK         0.0786 
    103 H103       22.7082   -4.5472   -3.9610 H         1 UNK         0.0786 
    104 H104       25.9260   -3.7890   -4.5331 H         1 UNK         0.2977 
    105 H105       28.7549    3.3232   -5.5247 H         1 UNK         0.3127 
    106 H106       30.8224    2.8567   -7.4223 H         1 UNK         0.0770 
    107 H107       28.7796    5.1325   -7.2072 H         1 UNK         0.0814 
    108 H108       30.2245    5.1579   -8.2084 H         1 UNK         0.0814 
    109 H109       30.3784    5.0967   -6.4612 H         1 UNK         0.0814 
    110 H110       27.2762    2.7999   -7.6691 H         1 UNK         0.2983 
    111 H111       27.3670    2.2095  -10.5771 H         1 UNK         0.0947 
    112 H112       24.8500    2.2468  -10.3037 H         1 UNK         0.0806 
    113 H113       25.6318    3.7523   -9.8549 H         1 UNK         0.0806 
    114 H114       25.0724    2.6521   -8.6053 H         1 UNK         0.0806 
    115 H115       27.6902    0.4242   -7.7010 H         1 UNK         0.3000 
    116 H116       26.3319   -2.0042   -8.7066 H         1 UNK         0.0850 
    117 H117       27.8858   -1.5756   -6.0985 H         1 UNK         0.0810 
    118 H118       26.9692   -2.9932   -6.5492 H         1 UNK         0.0810 
    119 H119       26.1353   -1.4832   -6.2726 H         1 UNK         0.0810 
    120 H120       29.6604   -0.9379   -7.7496 H         1 UNK         0.3040 
    121 H121       30.8501   -2.8355   -9.6837 H         1 UNK         0.0766 
    122 H122       31.3259   -3.0673   -6.6767 H         1 UNK         0.0812 
    123 H123       32.1452   -4.0070   -7.9162 H         1 UNK         0.0812 
    124 H124       30.4254   -4.2241   -7.6498 H         1 UNK         0.0812 
    125 H125       30.8204    0.0331   -9.6059 H         1 UNK         0.3205 
    126 H126       32.1615    1.6901  -10.1858 H         1 UNK         0.0754 
    127 H127       34.1815    1.1300  -11.4580 H         1 UNK         0.0769 
    128 H128       32.9283   -0.0444  -11.8112 H         1 UNK         0.0769 
    129 H129       34.2561   -0.4677  -10.7307 H         1 UNK         0.0769 
    130 H130       32.2149    1.1101   -7.3123 H         1 UNK         0.2981 
    131 H131       34.8207    1.9547   -6.3573 H         1 UNK         0.0541 
    132 H132       33.2096    5.3871   -7.4732 H         1 UNK         0.3459 
    133 H133       32.8231    3.8613   -8.2244 H         1 UNK         0.3459 
    134 H134       33.3579    2.3884   -4.1686 H         1 UNK         0.0612 
    135 H135       32.1110    1.5426   -5.0368 H         1 UNK         0.0612 
    136 H136       33.2998   -2.0606   -5.0592 H         1 UNK         0.0624 
    137 H137       32.2886   -0.8591   -5.8188 H         1 UNK         0.0624 
@<TRIPOS>BOND
     1    1    2 1    
     2    1   72 1    
     3    1   73 1    
     4    1   74 1    
     5    2    3 2    
     6    2    4 am   BACKBONE|DICT|INTERRES
     7    4    5 1    
     8    4   75 1    
     9    5    6 1    
    10    5   35 1    
    11    5   76 1    
    12    6    7 1    
    13    6   77 1    
    14    6   78 1    
    15    7    8 1    
    16    8    9 1    
    17    8   79 1    
    18    8   80 1    
    19    9   10 ar   
    20    9   14 ar   
    21   10   11 ar   
    22   10   81 1    
    23   11   12 ar   
    24   11   71 1    
    25   12   13 ar   
    26   12   82 1    
    27   13   14 ar   
    28   13   15 1    
    29   14   83 1    
    30   15   16 1    
    31   15   84 1    
    32   15   85 1    
    33   16   17 1    
    34   17   18 1    
    35   17   86 1    
    36   17   87 1    
    37   18   19 1    
    38   18   37 1    
    39   18   88 1    
    40   19   20 am   BACKBONE|DICT|INTERRES
    41   19   89 1    
    42   20   21 2    
    43   20   22 1    
    44   22   23 1    
    45   22   24 1    
    46   22   90 1    
    47   23   91 1    
    48   23   92 1    
    49   23   93 1    
    50   24   25 am   BACKBONE|DICT|INTERRES
    51   24   94 1    
    52   25   26 2    
    53   25   27 1    
    54   27   28 1    
    55   27   29 1    
    56   27   95 1    
    57   28   96 1    
    58   28   97 1    
    59   28   98 1    
    60   29   30 am   BACKBONE|DICT|INTERRES
    61   29   99 1    
    62   30   31 2    
    63   30   32 1    
    64   32   33 1    
    65   32   34 1    
    66   32  100 1    
    67   33  101 1    
    68   33  102 1    
    69   33  103 1    
    70   34   35 am   BACKBONE|DICT|INTERRES
    71   34  104 1    
    72   35   36 2    
    73   37   38 2    
    74   37   39 am   BACKBONE|DICT|INTERRES
    75   39   40 1    
    76   39  105 1    
    77   40   41 1    
    78   40   42 1    
    79   40  106 1    
    80   41  107 1    
    81   41  108 1    
    82   41  109 1    
    83   42   43 2    
    84   42   44 am   BACKBONE|DICT|INTERRES
    85   44   45 1    
    86   44  110 1    
    87   45   46 1    
    88   45   47 1    
    89   45  111 1    
    90   46  112 1    
    91   46  113 1    
    92   46  114 1    
    93   47   48 2    
    94   47   49 am   BACKBONE|DICT|INTERRES
    95   49   50 1    
    96   49  115 1    
    97   50   51 1    
    98   50   52 1    
    99   50  116 1    
   100   51  117 1    
   101   51  118 1    
   102   51  119 1    
   103   52   53 2    
   104   52   54 am   BACKBONE|DICT|INTERRES
   105   54   55 1    
   106   54  120 1    
   107   55   56 1    
   108   55   57 1    
   109   55  121 1    
   110   56  122 1    
   111   56  123 1    
   112   56  124 1    
   113   57   58 2    
   114   57   59 am   BACKBONE|DICT|INTERRES
   115   59   60 1    
   116   59  125 1    
   117   60   61 1    
   118   60   62 1    
   119   60  126 1    
   120   61  127 1    
   121   61  128 1    
   122   61  129 1    
   123   62   63 2    
   124   62   64 am   BACKBONE|DICT|INTERRES
   125   64   65 1    
   126   64  130 1    
   127   65   66 1    
   128   65   69 1    
   129   65  131 1    
   130   66   67 am   BACKBONE|DICT|INTERRES
   131   66   68 2    
   132   67  132 1    
   133   67  133 1    
   134   69   70 1    
   135   69  134 1    
   136   69  135 1    
   137   70   71 1    
   138   71  136 1    
   139   71  137 1    
@<TRIPOS>SUBSTRUCTURE
     1 UNK         1 GROUP             0       ****    0 ROOT    
