@<TRIPOS>MOLECULE
3R137
137   139    1
SMALL
USER_CHARGES


@<TRIPOS>ATOM
      1 CA         28.9876   -0.1417   -0.9996 C.3       0 UNK        -0.2020 
      2 C          29.4366   -0.7670    0.3186 C.2       0 UNK         0.4855 
      3 O          29.9865   -0.0606    1.1610 O.2       0 UNK        -0.5197 
      4 N          29.2455   -2.0742    0.5480 N.am      1 UNK        -0.4892 
      5 CA         28.5282   -3.0359   -0.2973 C.3       1 UNK         0.0835 
      6 C6         28.8290   -4.4858    0.1543 C.3       12 UNK        -0.0855 
      7 S7         28.5926   -5.7185   -1.1694 S.3       12 UNK        -0.2931 
      8 C8         30.2334   -5.7513   -1.9681 C.3       12 UNK         0.0378 
      9 C9         30.2897   -4.7928   -3.1486 C.ar      12 UNK        -0.0802 
     10 C10        30.8892   -3.5334   -3.0286 C.ar      12 UNK        -0.0944 
     11 C11        30.8986   -2.6425   -4.1085 C.ar      12 UNK        -0.0787 
     12 C12        30.3052   -3.0327   -5.3143 C.ar      12 UNK        -0.0862 
     13 C13        29.7280   -4.2969   -5.4560 C.ar      12 UNK        -0.0733 
     14 C14        29.7272   -5.1740   -4.3698 C.ar      12 UNK        -0.0832 
     15 C15        29.1132   -4.7115   -6.7864 C.3       12 UNK         0.0240 
     16 S16        27.3357   -5.1036   -6.6768 S.3       12 UNK        -0.2522 
     17 C17        26.6224   -3.6251   -5.8822 C.3       12 UNK        -0.0967 
     18 CA         26.3436   -2.4642   -6.8728 C.3       5 UNK         0.0660 
     19 N          25.1026   -1.7587   -6.5512 N.am      5 UNK        -0.4015 
     20 C          24.4917   -0.8738   -7.3513 C.2       4 UNK         0.4946 
     21 O          24.8761   -0.5885   -8.4856 O.2       4 UNK        -0.5353 
     22 CA         23.2646   -0.1570   -6.7636 C.3       4 UNK         0.0277 
     23 CB         21.9976   -1.0067   -6.9506 C.3       4 UNK        -0.1981 
     24 N          23.4338    0.1750   -5.3451 N.am      4 UNK        -0.4209 
     25 C          24.3260    1.0651   -4.8878 C.2       3 UNK         0.4942 
     26 O          25.0673    1.7247   -5.6158 O.2       3 UNK        -0.5208 
     27 CA         24.4397    1.2181   -3.3618 C.3       3 UNK         0.0250 
     28 CB         23.3704    2.1892   -2.8365 C.3       3 UNK        -0.1990 
     29 N          24.3699   -0.0450   -2.6149 N.am      3 UNK        -0.4232 
     30 C          25.2186   -1.0713   -2.7638 C.2       2 UNK         0.4993 
     31 O          26.0867   -1.1258   -3.6389 O.2       2 UNK        -0.5286 
     32 CA         25.0749   -2.2444   -1.7881 C.3       2 UNK         0.0209 
     33 CB         24.2211   -3.3622   -2.4074 C.3       2 UNK        -0.1931 
     34 N          26.4165   -2.7561   -1.5113 N.am      2 UNK        -0.4546 
     35 C          27.0172   -2.7223   -0.3173 C.2       1 UNK         0.5154 
     36 O          26.4436   -2.4264    0.7341 O.2       1 UNK        -0.5181 
     37 C          27.5217   -1.4759   -6.9397 C.2       5 UNK         0.5014 
     38 O          28.2834   -1.5030   -7.9059 O.2       5 UNK        -0.5248 
     39 N          27.6226   -0.5964   -5.9315 N.am      6 UNK        -0.4434 
     40 CA         28.6210    0.4689   -5.8364 C.3       6 UNK         0.0363 
     41 CB         28.4453    1.2299   -4.5144 C.3       6 UNK        -0.1936 
     42 C          28.5832    1.4375   -7.0242 C.2       6 UNK         0.5081 
     43 O          29.6417    1.7732   -7.5541 O.2       6 UNK        -0.5248 
     44 N          27.3727    1.8344   -7.4394 N.am      7 UNK        -0.4718 
     45 CA         27.1304    2.6614   -8.6216 C.3       7 UNK         0.0273 
     46 CB         25.6577    3.0999   -8.6499 C.3       7 UNK        -0.1935 
     47 C          27.5147    1.9567   -9.9331 C.2       7 UNK         0.5018 
     48 O          28.1238    2.5904  -10.7951 O.2       7 UNK        -0.5186 
     49 N          27.1692    0.6663  -10.0572 N.am      8 UNK        -0.4240 
     50 CA         27.4879   -0.1669  -11.2199 C.3       8 UNK         0.0235 
     51 CB         26.6956   -1.4828  -11.1510 C.3       8 UNK        -0.2000 
     52 C          28.9935   -0.4436  -11.3661 C.2       8 UNK         0.4941 
     53 O          29.5254   -0.3209  -12.4703 O.2       8 UNK        -0.5273 
     54 N          29.6519   -0.8062  -10.2572 N.am      9 UNK        -0.4262 
     55 CA         31.0888   -1.0903  -10.2025 C.3       9 UNK         0.0264 
     56 CB         31.3858   -1.9243   -8.9481 C.3       9 UNK        -0.1955 
     57 C          31.9686    0.1714  -10.2107 C.2       9 UNK         0.5031 
     58 O          33.1497    0.0652  -10.5444 O.2       9 UNK        -0.5390 
     59 N          31.3927    1.3197   -9.8250 N.am      10 UNK        -0.4204 
     60 CA         32.0411    2.6148   -9.5973 C.3       10 UNK         0.0237 
     61 CB         32.6423    3.1860  -10.9000 C.3       10 UNK        -0.1985 
     62 C          33.0438    2.5441   -8.4297 C.2       10 UNK         0.4970 
     63 O          34.2028    2.9358   -8.5835 O.2       10 UNK        -0.4914 
     64 N          32.5742    2.0278   -7.2852 N.am      11 UNK        -0.4285 
     65 CA         33.3347    1.9489   -6.0271 C.3       11 UNK         0.1007 
     66 C          33.6899    3.3529   -5.4624 C.2       11 UNK         0.5703 
     67 N          34.8536    3.4962   -4.8426 N.am      11 UNK        -0.7361 
     68 O          32.9051    4.2967   -5.5426 O.2       11 UNK        -0.4986 
     69 C69        32.5944    1.1121   -4.9510 C.3       12 UNK        -0.0947 
     70 S70        32.4115   -0.6432   -5.4016 S.3       12 UNK        -0.2240 
     71 C71        31.4980   -1.2471   -3.9396 C.3       12 UNK         0.0194 
     72 H72        29.5094    0.8002   -1.1680 H         1 UNK         0.0906 
     73 H73        29.2031   -0.7863   -1.8487 H         1 UNK         0.0906 
     74 H74        27.9187    0.0694   -0.9803 H         1 UNK         0.0906 
     75 H75        29.5350   -2.4361    1.4455 H         1 UNK         0.3140 
     76 H76        28.9086   -2.9216   -1.3109 H         1 UNK         0.1085 
     77 H77        28.2120   -4.7660    1.0108 H         1 UNK         0.0836 
     78 H78        29.8587   -4.5682    0.5060 H         1 UNK         0.0836 
     79 H79        31.0212   -5.5295   -1.2469 H         1 UNK         0.0731 
     80 H80        30.4284   -6.7656   -2.3199 H         1 UNK         0.0731 
     81 H81        31.3288   -3.2389   -2.0851 H         1 UNK         0.1312 
     82 H82        30.2897   -2.3484   -6.1490 H         1 UNK         0.1406 
     83 H83        29.2678   -6.1484   -4.4700 H         1 UNK         0.1631 
     84 H84        29.6413   -5.5901   -7.1589 H         1 UNK         0.0717 
     85 H85        29.2530   -3.9369   -7.5397 H         1 UNK         0.0717 
     86 H86        25.6834   -3.9690   -5.4479 H         1 UNK         0.0934 
     87 H87        27.2267   -3.3143   -5.0277 H         1 UNK         0.0934 
     88 H88        26.2100   -2.8807   -7.8738 H         1 UNK         0.0739 
     89 H89        24.7507   -1.8759   -5.6131 H         1 UNK         0.3093 
     90 H90        23.1340    0.7768   -7.3152 H         1 UNK         0.0818 
     91 H91        21.1089   -0.4731   -6.6129 H         1 UNK         0.0819 
     92 H92        21.8454   -1.2509   -8.0031 H         1 UNK         0.0819 
     93 H93        22.0532   -1.9482   -6.4027 H         1 UNK         0.0819 
     94 H94        22.8536   -0.3146   -4.6794 H         1 UNK         0.3041 
     95 H95        25.4187    1.6561   -3.1571 H         1 UNK         0.0784 
     96 H96        23.4150    3.1423   -3.3659 H         1 UNK         0.0793 
     97 H97        22.3626    1.7922   -2.9649 H         1 UNK         0.0793 
     98 H98        23.5147    2.4040   -1.7774 H         1 UNK         0.0793 
     99 H99        23.6729   -0.0931   -1.8851 H         1 UNK         0.3024 
    100 H100       24.5937   -1.8907   -0.8731 H         1 UNK         0.1171 
    101 H101       23.2180   -3.0060   -2.6454 H         1 UNK         0.0786 
    102 H102       24.1116   -4.1990   -1.7173 H         1 UNK         0.0786 
    103 H103       24.6604   -3.7479   -3.3270 H         1 UNK         0.0786 
    104 H104       26.9676   -2.9608   -2.3339 H         1 UNK         0.2977 
    105 H105       26.9750   -0.6821   -5.1489 H         1 UNK         0.3127 
    106 H106       29.5997   -0.0087   -5.8372 H         1 UNK         0.0770 
    107 H107       27.5053    1.7803   -4.4866 H         1 UNK         0.0814 
    108 H108       29.2476    1.9534   -4.3682 H         1 UNK         0.0814 
    109 H109       28.4537    0.5512   -3.6647 H         1 UNK         0.0814 
    110 H110       26.5581    1.5603   -6.8963 H         1 UNK         0.2983 
    111 H111       27.7516    3.5556   -8.5339 H         1 UNK         0.0947 
    112 H112       25.4542    3.7329   -9.5146 H         1 UNK         0.0806 
    113 H113       25.3986    3.6730   -7.7594 H         1 UNK         0.0806 
    114 H114       24.9827    2.2448   -8.7030 H         1 UNK         0.0806 
    115 H115       26.6340    0.2288   -9.3140 H         1 UNK         0.3000 
    116 H116       27.1649    0.3731  -12.1126 H         1 UNK         0.0850 
    117 H117       26.9074   -2.1127  -12.0160 H         1 UNK         0.0810 
    118 H118       25.6214   -1.2972  -11.1401 H         1 UNK         0.0810 
    119 H119       26.9425   -2.0585  -10.2585 H         1 UNK         0.0810 
    120 H120       29.1246   -0.9392   -9.3933 H         1 UNK         0.3040 
    121 H121       31.3578   -1.6846  -11.0783 H         1 UNK         0.0766 
    122 H122       32.4460   -2.1717   -8.8792 H         1 UNK         0.0812 
    123 H123       30.8330   -2.8628   -8.9557 H         1 UNK         0.0812 
    124 H124       31.1189   -1.3786   -8.0435 H         1 UNK         0.0812 
    125 H125       30.4334    1.2697   -9.5019 H         1 UNK         0.3205 
    126 H126       31.2506    3.2967   -9.2795 H         1 UNK         0.0754 
    127 H127       33.0111    4.2005  -10.7442 H         1 UNK         0.0769 
    128 H128       31.8955    3.2304  -11.6928 H         1 UNK         0.0769 
    129 H129       33.4805    2.5897  -11.2612 H         1 UNK         0.0769 
    130 H130       31.5918    1.7765   -7.2412 H         1 UNK         0.2981 
    131 H131       34.2738    1.4420   -6.2583 H         1 UNK         0.0541 
    132 H132       35.0949    4.3953   -4.4561 H         1 UNK         0.3459 
    133 H133       35.4993    2.7263   -4.7600 H         1 UNK         0.3459 
    134 H134       31.6064    1.5328   -4.7587 H         1 UNK         0.0612 
    135 H135       33.1336    1.1459   -4.0021 H         1 UNK         0.0612 
    136 H136       32.1729   -1.2243   -3.0826 H         1 UNK         0.0624 
    137 H137       30.6889   -0.5536   -3.7153 H         1 UNK         0.0624 
@<TRIPOS>BOND
     1    1    2 1    
     2    1   72 1    
     3    1   73 1    
     4    1   74 1    
     5    2    3 2    
     6    2    4 am   BACKBONE|DICT|INTERRES
     7    4    5 1    
     8    4   75 1    
     9    5    6 1    
    10    5   35 1    
    11    5   76 1    
    12    6    7 1    
    13    6   77 1    
    14    6   78 1    
    15    7    8 1    
    16    8    9 1    
    17    8   79 1    
    18    8   80 1    
    19    9   10 ar   
    20    9   14 ar   
    21   10   11 ar   
    22   10   81 1    
    23   11   12 ar   
    24   11   71 1    
    25   12   13 ar   
    26   12   82 1    
    27   13   14 ar   
    28   13   15 1    
    29   14   83 1    
    30   15   16 1    
    31   15   84 1    
    32   15   85 1    
    33   16   17 1    
    34   17   18 1    
    35   17   86 1    
    36   17   87 1    
    37   18   19 1    
    38   18   37 1    
    39   18   88 1    
    40   19   20 am   BACKBONE|DICT|INTERRES
    41   19   89 1    
    42   20   21 2    
    43   20   22 1    
    44   22   23 1    
    45   22   24 1    
    46   22   90 1    
    47   23   91 1    
    48   23   92 1    
    49   23   93 1    
    50   24   25 am   BACKBONE|DICT|INTERRES
    51   24   94 1    
    52   25   26 2    
    53   25   27 1    
    54   27   28 1    
    55   27   29 1    
    56   27   95 1    
    57   28   96 1    
    58   28   97 1    
    59   28   98 1    
    60   29   30 am   BACKBONE|DICT|INTERRES
    61   29   99 1    
    62   30   31 2    
    63   30   32 1    
    64   32   33 1    
    65   32   34 1    
    66   32  100 1    
    67   33  101 1    
    68   33  102 1    
    69   33  103 1    
    70   34   35 am   BACKBONE|DICT|INTERRES
    71   34  104 1    
    72   35   36 2    
    73   37   38 2    
    74   37   39 am   BACKBONE|DICT|INTERRES
    75   39   40 1    
    76   39  105 1    
    77   40   41 1    
    78   40   42 1    
    79   40  106 1    
    80   41  107 1    
    81   41  108 1    
    82   41  109 1    
    83   42   43 2    
    84   42   44 am   BACKBONE|DICT|INTERRES
    85   44   45 1    
    86   44  110 1    
    87   45   46 1    
    88   45   47 1    
    89   45  111 1    
    90   46  112 1    
    91   46  113 1    
    92   46  114 1    
    93   47   48 2    
    94   47   49 am   BACKBONE|DICT|INTERRES
    95   49   50 1    
    96   49  115 1    
    97   50   51 1    
    98   50   52 1    
    99   50  116 1    
   100   51  117 1    
   101   51  118 1    
   102   51  119 1    
   103   52   53 2    
   104   52   54 am   BACKBONE|DICT|INTERRES
   105   54   55 1    
   106   54  120 1    
   107   55   56 1    
   108   55   57 1    
   109   55  121 1    
   110   56  122 1    
   111   56  123 1    
   112   56  124 1    
   113   57   58 2    
   114   57   59 am   BACKBONE|DICT|INTERRES
   115   59   60 1    
   116   59  125 1    
   117   60   61 1    
   118   60   62 1    
   119   60  126 1    
   120   61  127 1    
   121   61  128 1    
   122   61  129 1    
   123   62   63 2    
   124   62   64 am   BACKBONE|DICT|INTERRES
   125   64   65 1    
   126   64  130 1    
   127   65   66 1    
   128   65   69 1    
   129   65  131 1    
   130   66   67 am   BACKBONE|DICT|INTERRES
   131   66   68 2    
   132   67  132 1    
   133   67  133 1    
   134   69   70 1    
   135   69  134 1    
   136   69  135 1    
   137   70   71 1    
   138   71  136 1    
   139   71  137 1    
@<TRIPOS>SUBSTRUCTURE
     1 UNK         1 GROUP             0       ****    0 ROOT    
