@<TRIPOS>MOLECULE
3R137
137   139    1
SMALL
USER_CHARGES


@<TRIPOS>ATOM
      1 CA         32.1890   -4.7755   -4.7535 C.3       0 UNK        -0.2020 
      2 C          30.7421   -5.2170   -4.5805 C.2       0 UNK         0.4855 
      3 O          30.4243   -6.3836   -4.8118 O.2       0 UNK        -0.5197 
      4 N          29.8649   -4.2935   -4.1714 N.am      1 UNK        -0.4892 
      5 CA         28.4297   -4.5198   -4.0022 C.3       1 UNK         0.0835 
      6 C6         27.8204   -3.5502   -2.9593 C.3       12 UNK        -0.0855 
      7 S7         28.1998   -4.0153   -1.2342 S.3       12 UNK        -0.2931 
      8 C8         29.9005   -3.4079   -0.9685 C.3       12 UNK         0.0378 
      9 C9         30.0871   -1.9426   -1.3392 C.ar      12 UNK        -0.0802 
     10 C10        30.9872   -1.5836   -2.3463 C.ar      12 UNK        -0.0944 
     11 C11        31.1851   -0.2410   -2.6837 C.ar      12 UNK        -0.0787 
     12 C12        30.4685    0.7478   -2.0031 C.ar      12 UNK        -0.0862 
     13 C13        29.5587    0.4013   -0.9993 C.ar      12 UNK        -0.0733 
     14 C14        29.3774   -0.9443   -0.6665 C.ar      12 UNK        -0.0832 
     15 C15        28.7669    1.4765   -0.2721 C.3       12 UNK         0.0240 
     16 S16        27.0847    1.6369   -0.9483 S.3       12 UNK        -0.2522 
     17 C17        27.3974    2.4219   -2.5669 C.3       12 UNK        -0.0967 
     18 CA         27.2636    1.4257   -3.7576 C.3       5 UNK         0.0660 
     19 N          25.9426    0.7933   -3.8176 N.am      5 UNK        -0.4015 
     20 C          24.7739    1.3829   -4.0976 C.2       4 UNK         0.4946 
     21 O          24.6666    2.5541   -4.4700 O.2       4 UNK        -0.5353 
     22 CA         23.5162    0.5043   -3.9401 C.3       4 UNK         0.0277 
     23 CB         22.2231    1.3406   -3.9038 C.3       4 UNK        -0.1981 
     24 N          23.3951   -0.5047   -4.9949 N.am      4 UNK        -0.4209 
     25 C          24.1847   -1.5749   -5.1503 C.2       3 UNK         0.4942 
     26 O          25.1151   -1.8529   -4.3881 O.2       3 UNK        -0.5208 
     27 CA         23.8793   -2.4834   -6.3498 C.3       3 UNK         0.0250 
     28 CB         23.5792   -1.6899   -7.6400 C.3       3 UNK        -0.1990 
     29 N          25.0072   -3.3919   -6.5456 N.am      3 UNK        -0.4232 
     30 C          24.9550   -4.6014   -7.1102 C.2       2 UNK         0.4993 
     31 O          23.9409   -5.0599   -7.6383 O.2       2 UNK        -0.5286 
     32 CA         26.2211   -5.4786   -7.0526 C.3       2 UNK         0.0209 
     33 CB         27.1045   -5.2774   -8.3003 C.3       2 UNK        -0.1931 
     34 N          26.9988   -5.3688   -5.8057 N.am      2 UNK        -0.4546 
     35 C          27.7450   -4.3441   -5.3686 C.2       1 UNK         0.5154 
     36 O          27.8810   -3.2806   -5.9759 O.2       1 UNK        -0.5181 
     37 C          27.6263    2.0412   -5.1267 C.2       5 UNK         0.5014 
     38 O          27.8496    1.2985   -6.0867 O.2       5 UNK        -0.5248 
     39 N          27.6344    3.3798   -5.2119 N.am      6 UNK        -0.4434 
     40 CA         27.9011    4.1724   -6.4157 C.3       6 UNK         0.0363 
     41 CB         27.9638    5.6593   -6.0309 C.3       6 UNK        -0.1936 
     42 C          26.9004    3.9555   -7.5673 C.2       6 UNK         0.5081 
     43 O          27.2175    4.3205   -8.6991 O.2       6 UNK        -0.5248 
     44 N          25.7359    3.3476   -7.2870 N.am      7 UNK        -0.4718 
     45 CA         24.7825    2.8880   -8.3033 C.3       7 UNK         0.0273 
     46 CB         23.4949    2.4018   -7.6210 C.3       7 UNK        -0.1935 
     47 C          25.3586    1.7851   -9.2128 C.2       7 UNK         0.5018 
     48 O          24.9850    1.7219  -10.3845 O.2       7 UNK        -0.5186 
     49 N          26.2646    0.9606   -8.6671 N.am      8 UNK        -0.4240 
     50 CA         27.0684   -0.0013   -9.4224 C.3       8 UNK         0.0235 
     51 CB         27.1320   -1.3434   -8.6746 C.3       8 UNK        -0.2000 
     52 C          28.4874    0.5323   -9.6511 C.2       8 UNK         0.4941 
     53 O          29.0175    0.3673  -10.7498 O.2       8 UNK        -0.5273 
     54 N          29.0815    1.1274   -8.6023 N.am      9 UNK        -0.4262 
     55 CA         30.4748    1.5852   -8.5169 C.3       9 UNK         0.0264 
     56 CB         30.7386    2.7609   -9.4807 C.3       9 UNK        -0.1955 
     57 C          31.4836    0.4290   -8.6773 C.2       9 UNK         0.5031 
     58 O          32.5681    0.6196   -9.2315 O.2       9 UNK        -0.5390 
     59 N          31.1097   -0.7535   -8.1638 N.am      10 UNK        -0.4204 
     60 CA         31.8414   -2.0213   -8.2742 C.3       10 UNK         0.0237 
     61 CB         30.9552   -3.1470   -7.7174 C.3       10 UNK        -0.1985 
     62 C          33.2335   -2.0344   -7.6118 C.2       10 UNK         0.4970 
     63 O          34.0311   -2.9233   -7.9114 O.2       10 UNK        -0.4914 
     64 N          33.5059   -1.0502   -6.7472 N.am      11 UNK        -0.4285 
     65 CA         34.8318   -0.7594   -6.1850 C.3       11 UNK         0.1007 
     66 C          35.8408   -0.1757   -7.2191 C.2       11 UNK         0.5703 
     67 N          35.4104    0.3128   -8.3782 N.am      11 UNK        -0.7361 
     68 O          37.0427   -0.1726   -6.9637 O.2       11 UNK        -0.4986 
     69 C69        34.7283    0.1669   -4.9448 C.3       12 UNK        -0.0947 
     70 S70        33.8043   -0.5858   -3.5653 S.3       12 UNK        -0.2240 
     71 C71        32.1505    0.1436   -3.7976 C.3       12 UNK         0.0194 
     72 H72        32.8037   -5.1847   -3.9523 H         1 UNK         0.0906 
     73 H73        32.5835   -5.1391   -5.7021 H         1 UNK         0.0906 
     74 H74        32.2932   -3.6909   -4.7437 H         1 UNK         0.0906 
     75 H75        30.1585   -3.3366   -4.0481 H         1 UNK         0.3140 
     76 H76        28.2656   -5.5433   -3.6569 H         1 UNK         0.1085 
     77 H77        28.1168   -2.5175   -3.1522 H         1 UNK         0.0836 
     78 H78        26.7310   -3.5554   -3.0334 H         1 UNK         0.0836 
     79 H79        30.1537   -3.5373    0.0846 H         1 UNK         0.0731 
     80 H80        30.5944   -4.0430   -1.5203 H         1 UNK         0.0731 
     81 H81        31.5541   -2.3471   -2.8583 H         1 UNK         0.1312 
     82 H82        30.6129    1.7884   -2.2592 H         1 UNK         0.1406 
     83 H83        28.6745   -1.2171    0.1094 H         1 UNK         0.1631 
     84 H84        29.2790    2.4389   -0.3189 H         1 UNK         0.0717 
     85 H85        28.6966    1.2228    0.7867 H         1 UNK         0.0717 
     86 H86        26.6835    3.2421   -2.6623 H         1 UNK         0.0934 
     87 H87        28.3875    2.8806   -2.5539 H         1 UNK         0.0934 
     88 H88        27.9775    0.6161   -3.5984 H         1 UNK         0.0739 
     89 H89        25.9223   -0.2094   -3.6570 H         1 UNK         0.3093 
     90 H90        23.6014   -0.0125   -2.9815 H         1 UNK         0.0818 
     91 H91        21.3522    0.7182   -3.6977 H         1 UNK         0.0819 
     92 H92        22.2708    2.0970   -3.1190 H         1 UNK         0.0819 
     93 H93        22.0490    1.8618   -4.8459 H         1 UNK         0.0819 
     94 H94        22.6575   -0.3560   -5.6675 H         1 UNK         0.3041 
     95 H95        23.0016   -3.0773   -6.0862 H         1 UNK         0.0784 
     96 H96        23.5554   -2.3380   -8.5161 H         1 UNK         0.0793 
     97 H97        22.6064   -1.2007   -7.5862 H         1 UNK         0.0793 
     98 H98        24.3219   -0.9136   -7.8187 H         1 UNK         0.0793 
     99 H99        25.8798   -3.0974   -6.1140 H         1 UNK         0.3024 
    100 H100       25.8665   -6.5107   -7.0789 H         1 UNK         0.1171 
    101 H101       27.4983   -4.2643   -8.3657 H         1 UNK         0.0786 
    102 H102       26.5355   -5.4608   -9.2127 H         1 UNK         0.0786 
    103 H103       27.9503   -5.9648   -8.3015 H         1 UNK         0.0786 
    104 H104       26.9398   -6.1830   -5.2091 H         1 UNK         0.2977 
    105 H105       27.3791    3.9057   -4.3889 H         1 UNK         0.3127 
    106 H106       28.8829    3.8756   -6.7903 H         1 UNK         0.0770 
    107 H107       27.0134    6.0118   -5.6281 H         1 UNK         0.0814 
    108 H108       28.1988    6.2780   -6.8982 H         1 UNK         0.0814 
    109 H109       28.7371    5.8460   -5.2855 H         1 UNK         0.0814 
    110 H110       25.5228    3.1181   -6.3211 H         1 UNK         0.2983 
    111 H111       24.5342    3.7416   -8.9379 H         1 UNK         0.0947 
    112 H112       22.7466    2.1127   -8.3602 H         1 UNK         0.0806 
    113 H113       23.0543    3.1819   -6.9998 H         1 UNK         0.0806 
    114 H114       23.6805    1.5345   -6.9890 H         1 UNK         0.0806 
    115 H115       26.5275    1.1112   -7.6998 H         1 UNK         0.3000 
    116 H116       26.6258   -0.1852  -10.4039 H         1 UNK         0.0850 
    117 H117       27.8939   -1.9959   -9.1030 H         1 UNK         0.0810 
    118 H118       27.3696   -1.2131   -7.6182 H         1 UNK         0.0810 
    119 H119       26.1890   -1.8813   -8.7459 H         1 UNK         0.0810 
    120 H120       28.5627    1.1832   -7.7265 H         1 UNK         0.3040 
    121 H121       30.6066    1.9601   -7.5009 H         1 UNK         0.0766 
    122 H122       30.0079    3.5581   -9.3428 H         1 UNK         0.0812 
    123 H123       30.6995    2.4470  -10.5240 H         1 UNK         0.0812 
    124 H124       31.7257    3.1921   -9.3096 H         1 UNK         0.0812 
    125 H125       30.2038   -0.8021   -7.7204 H         1 UNK         0.3205 
    126 H126       32.0017   -2.2102   -9.3376 H         1 UNK         0.0754 
    127 H127       31.4605   -4.1123   -7.7688 H         1 UNK         0.0769 
    128 H128       30.0287   -3.2417   -8.2841 H         1 UNK         0.0769 
    129 H129       30.6876   -2.9672   -6.6764 H         1 UNK         0.0769 
    130 H130       32.7953   -0.3566   -6.5820 H         1 UNK         0.2981 
    131 H131       35.2589   -1.7080   -5.8538 H         1 UNK         0.0541 
    132 H132       36.0818    0.6812   -9.0325 H         1 UNK         0.3459 
    133 H133       34.4220    0.3341   -8.6095 H         1 UNK         0.3459 
    134 H134       34.2786    1.1247   -5.2128 H         1 UNK         0.0612 
    135 H135       35.7236    0.4000   -4.5619 H         1 UNK         0.0612 
    136 H136       32.2502    1.2284   -3.8596 H         1 UNK         0.0624 
    137 H137       31.7334   -0.1894   -4.7479 H         1 UNK         0.0624 
@<TRIPOS>BOND
     1    1    2 1    
     2    1   72 1    
     3    1   73 1    
     4    1   74 1    
     5    2    3 2    
     6    2    4 am   BACKBONE|DICT|INTERRES
     7    4    5 1    
     8    4   75 1    
     9    5    6 1    
    10    5   35 1    
    11    5   76 1    
    12    6    7 1    
    13    6   77 1    
    14    6   78 1    
    15    7    8 1    
    16    8    9 1    
    17    8   79 1    
    18    8   80 1    
    19    9   10 ar   
    20    9   14 ar   
    21   10   11 ar   
    22   10   81 1    
    23   11   12 ar   
    24   11   71 1    
    25   12   13 ar   
    26   12   82 1    
    27   13   14 ar   
    28   13   15 1    
    29   14   83 1    
    30   15   16 1    
    31   15   84 1    
    32   15   85 1    
    33   16   17 1    
    34   17   18 1    
    35   17   86 1    
    36   17   87 1    
    37   18   19 1    
    38   18   37 1    
    39   18   88 1    
    40   19   20 am   BACKBONE|DICT|INTERRES
    41   19   89 1    
    42   20   21 2    
    43   20   22 1    
    44   22   23 1    
    45   22   24 1    
    46   22   90 1    
    47   23   91 1    
    48   23   92 1    
    49   23   93 1    
    50   24   25 am   BACKBONE|DICT|INTERRES
    51   24   94 1    
    52   25   26 2    
    53   25   27 1    
    54   27   28 1    
    55   27   29 1    
    56   27   95 1    
    57   28   96 1    
    58   28   97 1    
    59   28   98 1    
    60   29   30 am   BACKBONE|DICT|INTERRES
    61   29   99 1    
    62   30   31 2    
    63   30   32 1    
    64   32   33 1    
    65   32   34 1    
    66   32  100 1    
    67   33  101 1    
    68   33  102 1    
    69   33  103 1    
    70   34   35 am   BACKBONE|DICT|INTERRES
    71   34  104 1    
    72   35   36 2    
    73   37   38 2    
    74   37   39 am   BACKBONE|DICT|INTERRES
    75   39   40 1    
    76   39  105 1    
    77   40   41 1    
    78   40   42 1    
    79   40  106 1    
    80   41  107 1    
    81   41  108 1    
    82   41  109 1    
    83   42   43 2    
    84   42   44 am   BACKBONE|DICT|INTERRES
    85   44   45 1    
    86   44  110 1    
    87   45   46 1    
    88   45   47 1    
    89   45  111 1    
    90   46  112 1    
    91   46  113 1    
    92   46  114 1    
    93   47   48 2    
    94   47   49 am   BACKBONE|DICT|INTERRES
    95   49   50 1    
    96   49  115 1    
    97   50   51 1    
    98   50   52 1    
    99   50  116 1    
   100   51  117 1    
   101   51  118 1    
   102   51  119 1    
   103   52   53 2    
   104   52   54 am   BACKBONE|DICT|INTERRES
   105   54   55 1    
   106   54  120 1    
   107   55   56 1    
   108   55   57 1    
   109   55  121 1    
   110   56  122 1    
   111   56  123 1    
   112   56  124 1    
   113   57   58 2    
   114   57   59 am   BACKBONE|DICT|INTERRES
   115   59   60 1    
   116   59  125 1    
   117   60   61 1    
   118   60   62 1    
   119   60  126 1    
   120   61  127 1    
   121   61  128 1    
   122   61  129 1    
   123   62   63 2    
   124   62   64 am   BACKBONE|DICT|INTERRES
   125   64   65 1    
   126   64  130 1    
   127   65   66 1    
   128   65   69 1    
   129   65  131 1    
   130   66   67 am   BACKBONE|DICT|INTERRES
   131   66   68 2    
   132   67  132 1    
   133   67  133 1    
   134   69   70 1    
   135   69  134 1    
   136   69  135 1    
   137   70   71 1    
   138   71  136 1    
   139   71  137 1    
@<TRIPOS>SUBSTRUCTURE
     1 UNK         1 GROUP             0       ****    0 ROOT    
