@<TRIPOS>MOLECULE
3R137
137   139    1
SMALL
USER_CHARGES


@<TRIPOS>ATOM
      1 CA         25.8630   -6.6704   -3.9772 C.3       0 UNK        -0.2020 
      2 C          26.0692   -5.3664   -3.2229 C.2       0 UNK         0.4855 
      3 O          25.9783   -4.2971   -3.8255 O.2       0 UNK        -0.5197 
      4 N          26.3417   -5.4479   -1.9124 N.am      1 UNK        -0.4892 
      5 CA         26.5887   -4.3185   -1.0010 C.3       1 UNK         0.0835 
      6 C6         27.9418   -3.6014   -1.2850 C.3       12 UNK        -0.0855 
      7 S7         29.3996   -4.6979   -1.2203 S.3       12 UNK        -0.2931 
      8 C8         30.1214   -4.4603   -2.8860 C.3       12 UNK         0.0378 
      9 C9         30.5389   -3.0300   -3.2528 C.ar      12 UNK        -0.0802 
     10 C10        30.8318   -2.7511   -4.5918 C.ar      12 UNK        -0.0944 
     11 C11        31.1784   -1.4619   -5.0071 C.ar      12 UNK        -0.0787 
     12 C12        31.2436   -0.4391   -4.0541 C.ar      12 UNK        -0.0862 
     13 C13        30.9375   -0.6888   -2.7148 C.ar      12 UNK        -0.0733 
     14 C14        30.6168   -1.9895   -2.3164 C.ar      12 UNK        -0.0832 
     15 C15        30.9142    0.4502   -1.6993 C.3       12 UNK         0.0240 
     16 S16        29.8675    1.8628   -2.2103 S.3       12 UNK        -0.2522 
     17 C17        28.3005    1.0635   -2.7045 C.3       12 UNK        -0.0967 
     18 CA         28.1177    1.0696   -4.2482 C.3       5 UNK         0.0660 
     19 N          27.4986   -0.1618   -4.7374 N.am      5 UNK        -0.4015 
     20 C          27.5210   -0.5795   -6.0109 C.2       4 UNK         0.4946 
     21 O          28.0938    0.0122   -6.9267 O.2       4 UNK        -0.5353 
     22 CA         26.7529   -1.8720   -6.3237 C.3       4 UNK         0.0277 
     23 CB         27.6820   -3.0884   -6.1949 C.3       4 UNK        -0.1981 
     24 N          25.5758   -2.0587   -5.4699 N.am      4 UNK        -0.4209 
     25 C          24.4922   -1.2696   -5.4999 C.2       3 UNK         0.4942 
     26 O          24.3715   -0.3037   -6.2540 O.2       3 UNK        -0.5208 
     27 CA         23.3761   -1.5798   -4.4898 C.3       3 UNK         0.0250 
     28 CB         22.6654   -2.8979   -4.8389 C.3       3 UNK        -0.1990 
     29 N          23.8368   -1.6228   -3.0991 N.am      3 UNK        -0.4232 
     30 C          24.4426   -0.6261   -2.4400 C.2       2 UNK         0.4993 
     31 O          24.7610    0.4441   -2.9556 O.2       2 UNK        -0.5286 
     32 CA         24.7980   -0.8710   -0.9646 C.3       2 UNK         0.0209 
     33 CB         23.5451   -0.9195   -0.0667 C.3       2 UNK        -0.1931 
     34 N          25.6715   -2.0375   -0.7869 N.am      2 UNK        -0.4546 
     35 C          25.3880   -3.3363   -0.9722 C.2       1 UNK         0.5154 
     36 O          24.2429   -3.7602   -1.1547 O.2       1 UNK        -0.5181 
     37 C          27.3630    2.3143   -4.7528 C.2       5 UNK         0.5014 
     38 O          27.9970    3.2468   -5.2473 O.2       5 UNK        -0.5248 
     39 N          26.0242    2.2880   -4.6661 N.am      6 UNK        -0.4434 
     40 CA         25.1297    3.3197   -5.1969 C.3       6 UNK         0.0363 
     41 CB         23.6938    3.0506   -4.7195 C.3       6 UNK        -0.1936 
     42 C          25.1810    3.4207   -6.7306 C.2       6 UNK         0.5081 
     43 O          25.1620    4.5305   -7.2636 O.2       6 UNK        -0.5248 
     44 N          25.2682    2.2688   -7.4109 N.am      7 UNK        -0.4718 
     45 CA         25.4425    2.1773   -8.8636 C.3       7 UNK         0.0273 
     46 CB         25.1417    0.7392   -9.3159 C.3       7 UNK        -0.1935 
     47 C          26.8445    2.5973   -9.3438 C.2       7 UNK         0.5018 
     48 O          26.9848    2.9644  -10.5110 O.2       7 UNK        -0.5186 
     49 N          27.8432    2.5120   -8.4507 N.am      8 UNK        -0.4240 
     50 CA         29.2802    2.6958   -8.6823 C.3       8 UNK         0.0235 
     51 CB         29.6045    4.1622   -9.0356 C.3       8 UNK        -0.2000 
     52 C          29.8117    1.6854   -9.7149 C.2       8 UNK         0.4941 
     53 O          30.4302    2.0729  -10.7098 O.2       8 UNK        -0.5273 
     54 N          29.5200    0.3997   -9.4750 N.am      9 UNK        -0.4262 
     55 CA         29.8037   -0.7296  -10.3662 C.3       9 UNK         0.0264 
     56 CB         28.9334   -1.9231   -9.9326 C.3       9 UNK        -0.1955 
     57 C          31.3034   -1.0890  -10.4432 C.2       9 UNK         0.5031 
     58 O          31.6959   -2.1846  -10.0342 O.2       9 UNK        -0.5390 
     59 N          32.1128   -0.1523  -10.9581 N.am      10 UNK        -0.4204 
     60 CA         33.5716   -0.1733  -11.1557 C.3       10 UNK         0.0237 
     61 CB         34.0085   -1.3169  -12.0930 C.3       10 UNK        -0.1985 
     62 C          34.3745   -0.1769   -9.8427 C.2       10 UNK         0.4970 
     63 O          35.2109    0.7057   -9.6459 O.2       10 UNK        -0.4914 
     64 N          34.0696   -1.1388   -8.9667 N.am      11 UNK        -0.4285 
     65 CA         34.5538   -1.2705   -7.5853 C.3       11 UNK         0.1007 
     66 C          36.0898   -1.5147   -7.4764 C.2       11 UNK         0.5703 
     67 N          36.6952   -1.2801   -6.3188 N.am      11 UNK        -0.7361 
     68 O          36.7368   -1.9727   -8.4172 O.2       11 UNK        -0.4986 
     69 C69        34.0200   -0.1390   -6.6485 C.3       12 UNK        -0.0947 
     70 S70        32.2741    0.3313   -6.9242 S.3       12 UNK        -0.2240 
     71 C71        31.3868   -1.2063   -6.4994 C.3       12 UNK         0.0194 
     72 H72        25.9843   -7.5401   -3.3318 H         1 UNK         0.0906 
     73 H73        24.8610   -6.6998   -4.4044 H         1 UNK         0.0906 
     74 H74        26.5832   -6.7476   -4.7912 H         1 UNK         0.0906 
     75 H75        26.3733   -6.3588   -1.4765 H         1 UNK         0.3140 
     76 H76        26.6410   -4.7427    0.0030 H         1 UNK         0.1085 
     77 H77        28.1311   -2.8241   -0.5433 H         1 UNK         0.0836 
     78 H78        27.9037   -3.1017   -2.2551 H         1 UNK         0.0836 
     79 H79        29.3972   -4.8211   -3.6184 H         1 UNK         0.0731 
     80 H80        30.9955   -5.1068   -2.9737 H         1 UNK         0.0731 
     81 H81        30.7625   -3.5430   -5.3255 H         1 UNK         0.1312 
     82 H82        31.4816    0.5722   -4.3500 H         1 UNK         0.1406 
     83 H83        30.4039   -2.1766   -1.2744 H         1 UNK         0.1631 
     84 H84        31.9335    0.8054   -1.5428 H         1 UNK         0.0717 
     85 H85        30.5602    0.0958   -0.7300 H         1 UNK         0.0717 
     86 H86        28.3019    0.0432   -2.3189 H         1 UNK         0.0934 
     87 H87        27.4708    1.5574   -2.1942 H         1 UNK         0.0934 
     88 H88        29.1033    1.1068   -4.7156 H         1 UNK         0.0739 
     89 H89        26.9651   -0.7007   -4.0732 H         1 UNK         0.3093 
     90 H90        26.4119   -1.8114   -7.3589 H         1 UNK         0.0818 
     91 H91        28.5664   -2.9809   -6.8218 H         1 UNK         0.0819 
     92 H92        28.0273   -3.2197   -5.1693 H         1 UNK         0.0819 
     93 H93        27.1780   -4.0064   -6.4971 H         1 UNK         0.0819 
     94 H94        25.6059   -2.8460   -4.8203 H         1 UNK         0.3041 
     95 H95        22.6439   -0.7729   -4.5609 H         1 UNK         0.0784 
     96 H96        22.3167   -2.8928   -5.8726 H         1 UNK         0.0793 
     97 H97        23.3249   -3.7587   -4.7198 H         1 UNK         0.0793 
     98 H98        21.7931   -3.0564   -4.2046 H         1 UNK         0.0793 
     99 H99        23.6916   -2.4897   -2.5898 H         1 UNK         0.3024 
    100 H100       25.3857   -0.0091   -0.6425 H         1 UNK         0.1171 
    101 H101       23.8144   -1.0602    0.9800 H         1 UNK         0.0786 
    102 H102       22.9873    0.0154   -0.1344 H         1 UNK         0.0786 
    103 H103       22.8604   -1.7202   -0.3463 H         1 UNK         0.0786 
    104 H104       26.6404   -1.8050   -0.6227 H         1 UNK         0.2977 
    105 H105       25.5745    1.5056   -4.1913 H         1 UNK         0.3127 
    106 H106       25.4512    4.2807   -4.7900 H         1 UNK         0.0770 
    107 H107       23.3289    2.0828   -5.0661 H         1 UNK         0.0814 
    108 H108       23.0080    3.8127   -5.0918 H         1 UNK         0.0814 
    109 H109       23.6303    3.0595   -3.6312 H         1 UNK         0.0814 
    110 H110       25.1897    1.3920   -6.9020 H         1 UNK         0.2983 
    111 H111       24.7195    2.8452   -9.3370 H         1 UNK         0.0947 
    112 H112       25.2183    0.6455  -10.4000 H         1 UNK         0.0806 
    113 H113       24.1333    0.4360   -9.0339 H         1 UNK         0.0806 
    114 H114       25.8410    0.0270   -8.8771 H         1 UNK         0.0806 
    115 H115       27.6060    2.1483   -7.5360 H         1 UNK         0.3000 
    116 H116       29.7757    2.4636   -7.7378 H         1 UNK         0.0850 
    117 H117       30.6819    4.3141   -9.1093 H         1 UNK         0.0810 
    118 H118       29.2315    4.8434   -8.2707 H         1 UNK         0.0810 
    119 H119       29.1690    4.4578   -9.9905 H         1 UNK         0.0810 
    120 H120       29.0253    0.1852   -8.6113 H         1 UNK         0.3040 
    121 H121       29.4925   -0.4471  -11.3741 H         1 UNK         0.0766 
    122 H122       27.8740   -1.6660   -9.9322 H         1 UNK         0.0812 
    123 H123       29.1966   -2.2651   -8.9325 H         1 UNK         0.0812 
    124 H124       29.0625   -2.7680  -10.6103 H         1 UNK         0.0812 
    125 H125       31.6648    0.7428  -11.1512 H         1 UNK         0.3205 
    126 H126       33.8076    0.7648  -11.6608 H         1 UNK         0.0754 
    127 H127       35.0793   -1.2648  -12.2943 H         1 UNK         0.0769 
    128 H128       33.4951   -1.2588  -13.0528 H         1 UNK         0.0769 
    129 H129       33.8085   -2.2999  -11.6660 H         1 UNK         0.0769 
    130 H130       33.3357   -1.7857   -9.2437 H         1 UNK         0.2981 
    131 H131       34.1235   -2.2086   -7.2367 H         1 UNK         0.0541 
    132 H132       36.1850   -0.9256   -5.5257 H         1 UNK         0.3459 
    133 H133       37.6843   -1.4579   -6.2402 H         1 UNK         0.3459 
    134 H134       34.6164    0.7656   -6.7795 H         1 UNK         0.0612 
    135 H135       34.1266   -0.4279   -5.6019 H         1 UNK         0.0612 
    136 H136       30.4063   -1.1557   -6.9689 H         1 UNK         0.0624 
    137 H137       31.8853   -2.0575   -6.9615 H         1 UNK         0.0624 
@<TRIPOS>BOND
     1    1    2 1    
     2    1   72 1    
     3    1   73 1    
     4    1   74 1    
     5    2    3 2    
     6    2    4 am   BACKBONE|DICT|INTERRES
     7    4    5 1    
     8    4   75 1    
     9    5    6 1    
    10    5   35 1    
    11    5   76 1    
    12    6    7 1    
    13    6   77 1    
    14    6   78 1    
    15    7    8 1    
    16    8    9 1    
    17    8   79 1    
    18    8   80 1    
    19    9   10 ar   
    20    9   14 ar   
    21   10   11 ar   
    22   10   81 1    
    23   11   12 ar   
    24   11   71 1    
    25   12   13 ar   
    26   12   82 1    
    27   13   14 ar   
    28   13   15 1    
    29   14   83 1    
    30   15   16 1    
    31   15   84 1    
    32   15   85 1    
    33   16   17 1    
    34   17   18 1    
    35   17   86 1    
    36   17   87 1    
    37   18   19 1    
    38   18   37 1    
    39   18   88 1    
    40   19   20 am   BACKBONE|DICT|INTERRES
    41   19   89 1    
    42   20   21 2    
    43   20   22 1    
    44   22   23 1    
    45   22   24 1    
    46   22   90 1    
    47   23   91 1    
    48   23   92 1    
    49   23   93 1    
    50   24   25 am   BACKBONE|DICT|INTERRES
    51   24   94 1    
    52   25   26 2    
    53   25   27 1    
    54   27   28 1    
    55   27   29 1    
    56   27   95 1    
    57   28   96 1    
    58   28   97 1    
    59   28   98 1    
    60   29   30 am   BACKBONE|DICT|INTERRES
    61   29   99 1    
    62   30   31 2    
    63   30   32 1    
    64   32   33 1    
    65   32   34 1    
    66   32  100 1    
    67   33  101 1    
    68   33  102 1    
    69   33  103 1    
    70   34   35 am   BACKBONE|DICT|INTERRES
    71   34  104 1    
    72   35   36 2    
    73   37   38 2    
    74   37   39 am   BACKBONE|DICT|INTERRES
    75   39   40 1    
    76   39  105 1    
    77   40   41 1    
    78   40   42 1    
    79   40  106 1    
    80   41  107 1    
    81   41  108 1    
    82   41  109 1    
    83   42   43 2    
    84   42   44 am   BACKBONE|DICT|INTERRES
    85   44   45 1    
    86   44  110 1    
    87   45   46 1    
    88   45   47 1    
    89   45  111 1    
    90   46  112 1    
    91   46  113 1    
    92   46  114 1    
    93   47   48 2    
    94   47   49 am   BACKBONE|DICT|INTERRES
    95   49   50 1    
    96   49  115 1    
    97   50   51 1    
    98   50   52 1    
    99   50  116 1    
   100   51  117 1    
   101   51  118 1    
   102   51  119 1    
   103   52   53 2    
   104   52   54 am   BACKBONE|DICT|INTERRES
   105   54   55 1    
   106   54  120 1    
   107   55   56 1    
   108   55   57 1    
   109   55  121 1    
   110   56  122 1    
   111   56  123 1    
   112   56  124 1    
   113   57   58 2    
   114   57   59 am   BACKBONE|DICT|INTERRES
   115   59   60 1    
   116   59  125 1    
   117   60   61 1    
   118   60   62 1    
   119   60  126 1    
   120   61  127 1    
   121   61  128 1    
   122   61  129 1    
   123   62   63 2    
   124   62   64 am   BACKBONE|DICT|INTERRES
   125   64   65 1    
   126   64  130 1    
   127   65   66 1    
   128   65   69 1    
   129   65  131 1    
   130   66   67 am   BACKBONE|DICT|INTERRES
   131   66   68 2    
   132   67  132 1    
   133   67  133 1    
   134   69   70 1    
   135   69  134 1    
   136   69  135 1    
   137   70   71 1    
   138   71  136 1    
   139   71  137 1    
@<TRIPOS>SUBSTRUCTURE
     1 UNK         1 GROUP             0       ****    0 ROOT    
