@<TRIPOS>MOLECULE
3R137
137   139    1
SMALL
USER_CHARGES


@<TRIPOS>ATOM
      1 CA         29.9916    1.6282   -2.3210 C.3       0 UNK        -0.2020 
      2 C          29.4743    0.1981   -2.3523 C.2       0 UNK         0.4855 
      3 O          29.1550   -0.3101   -3.4244 O.2       0 UNK        -0.5197 
      4 N          29.3981   -0.4591   -1.1881 N.am      1 UNK        -0.4892 
      5 CA         28.8715   -1.8187   -1.0519 C.3       1 UNK         0.0835 
      6 C6         29.3695   -2.4812    0.2585 C.3       12 UNK        -0.0855 
      7 S7         28.9820   -4.2634    0.3771 S.3       12 UNK        -0.2931 
      8 C8         30.4800   -5.0325   -0.3226 C.3       12 UNK         0.0378 
      9 C9         30.6589   -4.6887   -1.7948 C.ar      12 UNK        -0.0802 
     10 C10        31.7547   -3.9296   -2.2149 C.ar      12 UNK        -0.0944 
     11 C11        31.9046   -3.5915   -3.5622 C.ar      12 UNK        -0.0787 
     12 C12        30.9512   -4.0192   -4.4913 C.ar      12 UNK        -0.0862 
     13 C13        29.8284   -4.7509   -4.0813 C.ar      12 UNK        -0.0733 
     14 C14        29.7084   -5.1035   -2.7333 C.ar      12 UNK        -0.0832 
     15 C15        28.7256   -5.1840   -5.0506 C.3       12 UNK         0.0240 
     16 S16        28.5442   -4.1717   -6.5621 S.3       12 UNK        -0.2522 
     17 C17        28.3240   -2.4854   -5.9019 C.3       12 UNK        -0.0967 
     18 CA         27.5429   -1.5908   -6.8954 C.3       5 UNK         0.0660 
     19 N          26.1022   -1.8565   -6.8793 N.am      5 UNK        -0.4015 
     20 C          25.2258   -1.3786   -7.7738 C.2       4 UNK         0.4946 
     21 O          25.5396   -0.6916   -8.7458 O.2       4 UNK        -0.5353 
     22 CA         23.7414   -1.6878   -7.5164 C.3       4 UNK         0.0277 
     23 CB         23.3990   -3.1216   -7.9520 C.3       4 UNK        -0.1981 
     24 N          23.3585   -1.4894   -6.1155 N.am      4 UNK        -0.4209 
     25 C          23.3432   -0.2975   -5.5009 C.2       3 UNK         0.4942 
     26 O          23.6078    0.7653   -6.0612 O.2       3 UNK        -0.5208 
     27 CA         23.0216   -0.2904   -3.9953 C.3       3 UNK         0.0250 
     28 CB         21.5013   -0.2761   -3.7696 C.3       3 UNK        -0.1990 
     29 N          23.6235   -1.3926   -3.2321 N.am      3 UNK        -0.4232 
     30 C          24.9303   -1.6900   -3.2107 C.2       2 UNK         0.4993 
     31 O          25.7680   -1.1303   -3.9185 O.2       2 UNK        -0.5286 
     32 CA         25.3665   -2.8407   -2.2890 C.3       2 UNK         0.0209 
     33 CB         25.1065   -4.1941   -2.9710 C.3       2 UNK        -0.1931 
     34 N          26.7898   -2.7491   -1.9539 N.am      2 UNK        -0.4546 
     35 C          27.3331   -1.8078   -1.1701 C.2       1 UNK         0.5154 
     36 O          26.6772   -0.9711   -0.5424 O.2       1 UNK        -0.5181 
     37 C          27.8462   -0.1009   -6.6597 C.2       5 UNK         0.5014 
     38 O          28.6951    0.4503   -7.3621 O.2       5 UNK        -0.5248 
     39 N          27.1300    0.5261   -5.7172 N.am      6 UNK        -0.4434 
     40 CA         27.2288    1.9495   -5.3998 C.3       6 UNK         0.0363 
     41 CB         26.4086    2.2552   -4.1366 C.3       6 UNK        -0.1936 
     42 C          26.7928    2.8448   -6.5701 C.2       6 UNK         0.5081 
     43 O          27.4876    3.8136   -6.8753 O.2       6 UNK        -0.5248 
     44 N          25.6760    2.4914   -7.2241 N.am      7 UNK        -0.4718 
     45 CA         25.1555    3.1766   -8.4109 C.3       7 UNK         0.0273 
     46 CB         23.7498    2.6492   -8.7392 C.3       7 UNK        -0.1935 
     47 C          26.0804    3.0472   -9.6322 C.2       7 UNK         0.5018 
     48 O          26.2725    4.0291  -10.3505 O.2       7 UNK        -0.5186 
     49 N          26.6476    1.8503   -9.8367 N.am      8 UNK        -0.4240 
     50 CA         27.6112    1.5645  -10.9030 C.3       8 UNK         0.0235 
     51 CB         27.7021    0.0415  -11.0951 C.3       8 UNK        -0.2000 
     52 C          29.0142    2.1456  -10.6458 C.2       8 UNK         0.4941 
     53 O          29.7869    2.2646  -11.5974 O.2       8 UNK        -0.5273 
     54 N          29.3289    2.4503   -9.3764 N.am      9 UNK        -0.4262 
     55 CA         30.6549    2.7795   -8.8358 C.3       9 UNK         0.0264 
     56 CB         31.1755    4.1204   -9.3946 C.3       9 UNK        -0.1955 
     57 C          31.6455    1.6118   -9.0226 C.2       9 UNK         0.5031 
     58 O          32.8048    1.8252   -9.3858 O.2       9 UNK        -0.5390 
     59 N          31.1531    0.3873   -8.7830 N.am      10 UNK        -0.4204 
     60 CA         31.8317   -0.8804   -9.0720 C.3       10 UNK         0.0237 
     61 CB         30.8510   -2.0408   -8.8445 C.3       10 UNK        -0.1985 
     62 C          33.1239   -1.1116   -8.2724 C.2       10 UNK         0.4970 
     63 O          33.9913   -1.8516   -8.7384 O.2       10 UNK        -0.4914 
     64 N          33.2318   -0.4816   -7.0971 N.am      11 UNK        -0.4285 
     65 CA         34.4187   -0.5287   -6.2315 C.3       11 UNK         0.1007 
     66 C          35.6174    0.3237   -6.7445 C.2       11 UNK         0.5703 
     67 N          35.4575    1.1628   -7.7632 N.am      11 UNK        -0.7361 
     68 O          36.7182    0.2150   -6.2095 O.2       11 UNK        -0.4986 
     69 C69        34.0856   -0.1895   -4.7519 C.3       12 UNK        -0.0947 
     70 S70        32.5771   -0.9902   -4.1106 S.3       12 UNK        -0.2240 
     71 C71        33.0765   -2.7347   -4.0144 C.3       12 UNK         0.0194 
     72 H72        29.2234    2.3131   -2.6786 H         1 UNK         0.0906 
     73 H73        30.8616    1.7224   -2.9708 H         1 UNK         0.0906 
     74 H74        30.2828    1.9360   -1.3170 H         1 UNK         0.0906 
     75 H75        29.6337    0.0143   -0.3278 H         1 UNK         0.3140 
     76 H76        29.2665   -2.3896   -1.8933 H         1 UNK         0.1085 
     77 H77        28.9400   -1.9781    1.1269 H         1 UNK         0.0836 
     78 H78        30.4502   -2.3585    0.3489 H         1 UNK         0.0836 
     79 H79        31.3494   -4.7276    0.2622 H         1 UNK         0.0731 
     80 H80        30.4043   -6.1157   -0.2169 H         1 UNK         0.0731 
     81 H81        32.4843   -3.5882   -1.4932 H         1 UNK         0.1312 
     82 H82        31.0776   -3.7505   -5.5304 H         1 UNK         0.1406 
     83 H83        28.8571   -5.6836   -2.4019 H         1 UNK         0.1631 
     84 H84        27.7646   -5.1906   -4.5356 H         1 UNK         0.0717 
     85 H85        28.9184   -6.2144   -5.3512 H         1 UNK         0.0717 
     86 H86        27.8282   -2.5205   -4.9304 H         1 UNK         0.0934 
     87 H87        29.3175   -2.0758   -5.7078 H         1 UNK         0.0934 
     88 H88        27.8959   -1.8118   -7.9049 H         1 UNK         0.0739 
     89 H89        25.7516   -2.3577   -6.0783 H         1 UNK         0.3093 
     90 H90        23.1523   -0.9982   -8.1251 H         1 UNK         0.0818 
     91 H91        23.6661   -3.2842   -8.9972 H         1 UNK         0.0819 
     92 H92        23.9322   -3.8666   -7.3602 H         1 UNK         0.0819 
     93 H93        22.3311   -3.3197   -7.8586 H         1 UNK         0.0819 
     94 H94        23.1217   -2.3105   -5.5782 H         1 UNK         0.3041 
     95 H95        23.4303    0.6361   -3.5871 H         1 UNK         0.0784 
     96 H96        21.0338    0.5463   -4.3135 H         1 UNK         0.0793 
     97 H97        21.0321   -1.2000   -4.1100 H         1 UNK         0.0793 
     98 H98        21.2570   -0.1430   -2.7155 H         1 UNK         0.0793 
     99 H99        22.9977   -1.9188   -2.6392 H         1 UNK         0.3024 
    100 H100       24.7919   -2.7852   -1.3617 H         1 UNK         0.1171 
    101 H101       24.0425   -4.3400   -3.1619 H         1 UNK         0.0786 
    102 H102       25.6205   -4.2691   -3.9297 H         1 UNK         0.0786 
    103 H103       25.4362   -5.0246   -2.3463 H         1 UNK         0.0786 
    104 H104       27.4070   -3.3816   -2.4392 H         1 UNK         0.2977 
    105 H105       26.5209   -0.0363   -5.1228 H         1 UNK         0.3127 
    106 H106       28.2782    2.1629   -5.1858 H         1 UNK         0.0770 
    107 H107       25.3448    2.0779   -4.2942 H         1 UNK         0.0814 
    108 H108       26.5265    3.2974   -3.8380 H         1 UNK         0.0814 
    109 H109       26.7276    1.6357   -3.2979 H         1 UNK         0.0814 
    110 H110       25.1285    1.7094   -6.8732 H         1 UNK         0.2983 
    111 H111       25.0737    4.2393   -8.1724 H         1 UNK         0.0947 
    112 H112       23.7584    1.5775   -8.9420 H         1 UNK         0.0806 
    113 H113       23.3395    3.1468   -9.6189 H         1 UNK         0.0806 
    114 H114       23.0589    2.8263   -7.9148 H         1 UNK         0.0806 
    115 H115       26.3823    1.0725   -9.2381 H         1 UNK         0.3000 
    116 H116       27.2397    2.0052  -11.8307 H         1 UNK         0.0850 
    117 H117       28.3999   -0.2145  -11.8935 H         1 UNK         0.0810 
    118 H118       26.7339   -0.3827  -11.3619 H         1 UNK         0.0810 
    119 H119       28.0451   -0.4565  -10.1876 H         1 UNK         0.0810 
    120 H120       28.6218    2.2663   -8.6745 H         1 UNK         0.3040 
    121 H121       30.5214    2.8989   -7.7595 H         1 UNK         0.0766 
    122 H122       31.3947    4.0599  -10.4608 H         1 UNK         0.0812 
    123 H123       32.0962    4.4192   -8.8921 H         1 UNK         0.0812 
    124 H124       30.4497    4.9196   -9.2449 H         1 UNK         0.0812 
    125 H125       30.2080    0.3302   -8.4051 H         1 UNK         0.3205 
    126 H126       32.1055   -0.8666  -10.1289 H         1 UNK         0.0754 
    127 H127       31.3090   -2.9978   -9.0982 H         1 UNK         0.0769 
    128 H128       29.9583   -1.9373   -9.4609 H         1 UNK         0.0769 
    129 H129       30.5387   -2.0974   -7.8023 H         1 UNK         0.0769 
    130 H130       32.4699    0.0991   -6.7815 H         1 UNK         0.2981 
    131 H131       34.7774   -1.5592   -6.2444 H         1 UNK         0.0541 
    132 H132       36.2461    1.7024   -8.0826 H         1 UNK         0.3459 
    133 H133       34.5608    1.2627   -8.2228 H         1 UNK         0.3459 
    134 H134       33.9452    0.8869   -4.6371 H         1 UNK         0.0612 
    135 H135       34.9207   -0.4569   -4.1020 H         1 UNK         0.0612 
    136 H136       33.4233   -3.0738   -4.9913 H         1 UNK         0.0624 
    137 H137       33.9179   -2.8364   -3.3274 H         1 UNK         0.0624 
@<TRIPOS>BOND
     1    1    2 1    
     2    1   72 1    
     3    1   73 1    
     4    1   74 1    
     5    2    3 2    
     6    2    4 am   BACKBONE|DICT|INTERRES
     7    4    5 1    
     8    4   75 1    
     9    5    6 1    
    10    5   35 1    
    11    5   76 1    
    12    6    7 1    
    13    6   77 1    
    14    6   78 1    
    15    7    8 1    
    16    8    9 1    
    17    8   79 1    
    18    8   80 1    
    19    9   10 ar   
    20    9   14 ar   
    21   10   11 ar   
    22   10   81 1    
    23   11   12 ar   
    24   11   71 1    
    25   12   13 ar   
    26   12   82 1    
    27   13   14 ar   
    28   13   15 1    
    29   14   83 1    
    30   15   16 1    
    31   15   84 1    
    32   15   85 1    
    33   16   17 1    
    34   17   18 1    
    35   17   86 1    
    36   17   87 1    
    37   18   19 1    
    38   18   37 1    
    39   18   88 1    
    40   19   20 am   BACKBONE|DICT|INTERRES
    41   19   89 1    
    42   20   21 2    
    43   20   22 1    
    44   22   23 1    
    45   22   24 1    
    46   22   90 1    
    47   23   91 1    
    48   23   92 1    
    49   23   93 1    
    50   24   25 am   BACKBONE|DICT|INTERRES
    51   24   94 1    
    52   25   26 2    
    53   25   27 1    
    54   27   28 1    
    55   27   29 1    
    56   27   95 1    
    57   28   96 1    
    58   28   97 1    
    59   28   98 1    
    60   29   30 am   BACKBONE|DICT|INTERRES
    61   29   99 1    
    62   30   31 2    
    63   30   32 1    
    64   32   33 1    
    65   32   34 1    
    66   32  100 1    
    67   33  101 1    
    68   33  102 1    
    69   33  103 1    
    70   34   35 am   BACKBONE|DICT|INTERRES
    71   34  104 1    
    72   35   36 2    
    73   37   38 2    
    74   37   39 am   BACKBONE|DICT|INTERRES
    75   39   40 1    
    76   39  105 1    
    77   40   41 1    
    78   40   42 1    
    79   40  106 1    
    80   41  107 1    
    81   41  108 1    
    82   41  109 1    
    83   42   43 2    
    84   42   44 am   BACKBONE|DICT|INTERRES
    85   44   45 1    
    86   44  110 1    
    87   45   46 1    
    88   45   47 1    
    89   45  111 1    
    90   46  112 1    
    91   46  113 1    
    92   46  114 1    
    93   47   48 2    
    94   47   49 am   BACKBONE|DICT|INTERRES
    95   49   50 1    
    96   49  115 1    
    97   50   51 1    
    98   50   52 1    
    99   50  116 1    
   100   51  117 1    
   101   51  118 1    
   102   51  119 1    
   103   52   53 2    
   104   52   54 am   BACKBONE|DICT|INTERRES
   105   54   55 1    
   106   54  120 1    
   107   55   56 1    
   108   55   57 1    
   109   55  121 1    
   110   56  122 1    
   111   56  123 1    
   112   56  124 1    
   113   57   58 2    
   114   57   59 am   BACKBONE|DICT|INTERRES
   115   59   60 1    
   116   59  125 1    
   117   60   61 1    
   118   60   62 1    
   119   60  126 1    
   120   61  127 1    
   121   61  128 1    
   122   61  129 1    
   123   62   63 2    
   124   62   64 am   BACKBONE|DICT|INTERRES
   125   64   65 1    
   126   64  130 1    
   127   65   66 1    
   128   65   69 1    
   129   65  131 1    
   130   66   67 am   BACKBONE|DICT|INTERRES
   131   66   68 2    
   132   67  132 1    
   133   67  133 1    
   134   69   70 1    
   135   69  134 1    
   136   69  135 1    
   137   70   71 1    
   138   71  136 1    
   139   71  137 1    
@<TRIPOS>SUBSTRUCTURE
     1 UNK         1 GROUP             0       ****    0 ROOT    
