@<TRIPOS>MOLECULE
3R137
137   139    1
SMALL
USER_CHARGES


@<TRIPOS>ATOM
      1 CA         27.4980   -6.8960   -4.6504 C.3       0 UNK        -0.2020 
      2 C          27.0018   -5.9827   -3.5396 C.2       0 UNK         0.4855 
      3 O          25.8057   -5.9697   -3.2456 O.2       0 UNK        -0.5197 
      4 N          27.9118   -5.2229   -2.9178 N.am      1 UNK        -0.4892 
      5 CA         27.6139   -4.2279   -1.8826 C.3       1 UNK         0.0835 
      6 C6         28.9037   -3.6104   -1.2953 C.3       12 UNK        -0.0855 
      7 S7         30.0901   -4.7778   -0.5446 S.3       12 UNK        -0.2931 
      8 C8         31.3574   -3.6219    0.1045 C.3       12 UNK         0.0378 
      9 C9         31.8137   -2.6379   -0.9656 C.ar      12 UNK        -0.0802 
     10 C10        32.7658   -3.0171   -1.9146 C.ar      12 UNK        -0.0944 
     11 C11        33.0473   -2.1852   -3.0022 C.ar      12 UNK        -0.0787 
     12 C12        32.3685   -0.9692   -3.1394 C.ar      12 UNK        -0.0862 
     13 C13        31.4221   -0.5756   -2.1887 C.ar      12 UNK        -0.0733 
     14 C14        31.1923   -1.3896   -1.0752 C.ar      12 UNK        -0.0832 
     15 C15        30.5652    0.6651   -2.4113 C.3       12 UNK         0.0240 
     16 S16        28.8218    0.1704   -2.6004 S.3       12 UNK        -0.2522 
     17 C17        28.0177    1.6336   -3.3327 C.3       12 UNK        -0.0967 
     18 CA         27.8768    1.5507   -4.8777 C.3       5 UNK         0.0660 
     19 N          27.4834    0.2262   -5.3630 N.am      5 UNK        -0.4015 
     20 C          27.6020   -0.1879   -6.6306 C.2       4 UNK         0.4946 
     21 O          28.1260    0.4782   -7.5260 O.2       4 UNK        -0.5353 
     22 CA         27.0431   -1.5786   -6.9610 C.3       4 UNK         0.0277 
     23 CB         28.1422   -2.6439   -6.8169 C.3       4 UNK        -0.1981 
     24 N          25.8958   -1.9291   -6.1193 N.am      4 UNK        -0.4209 
     25 C          24.6705   -1.4028   -6.2630 C.2       3 UNK         0.4942 
     26 O          24.3801   -0.5820   -7.1320 O.2       3 UNK        -0.5208 
     27 CA         23.5953   -1.8267   -5.2462 C.3       3 UNK         0.0250 
     28 CB         22.9602   -3.1639   -5.6591 C.3       3 UNK        -0.1990 
     29 N          24.0949   -1.9265   -3.8728 N.am      3 UNK        -0.4232 
     30 C          24.6260   -0.9101   -3.1799 C.2       2 UNK         0.4993 
     31 O          24.7234    0.2377   -3.6130 O.2       2 UNK        -0.5286 
     32 CA         25.1919   -1.2265   -1.7861 C.3       2 UNK         0.0209 
     33 CB         24.0916   -1.0860   -0.7221 C.3       2 UNK        -0.1931 
     34 N          25.8618   -2.5268   -1.6258 N.am      2 UNK        -0.4546 
     35 C          26.7715   -3.0673   -2.4514 C.2       1 UNK         0.5154 
     36 O          27.0216   -2.6426   -3.5824 O.2       1 UNK        -0.5181 
     37 C          26.8943    2.6145   -5.4048 C.2       5 UNK         0.5014 
     38 O          27.3308    3.6198   -5.9648 O.2       5 UNK        -0.5248 
     39 N          25.5858    2.3490   -5.2583 N.am      6 UNK        -0.4434 
     40 CA         24.4850    3.1947   -5.7311 C.3       6 UNK         0.0363 
     41 CB         23.1496    2.6295   -5.2218 C.3       6 UNK        -0.1936 
     42 C          24.4497    3.3566   -7.2596 C.2       6 UNK         0.5081 
     43 O          24.1531    4.4489   -7.7437 O.2       6 UNK        -0.5248 
     44 N          24.7862    2.2857   -7.9924 N.am      7 UNK        -0.4718 
     45 CA         24.9420    2.2912   -9.4510 C.3       7 UNK         0.0273 
     46 CB         24.9362    0.8398   -9.9597 C.3       7 UNK        -0.1935 
     47 C          26.2112    3.0163   -9.9398 C.2       7 UNK         0.5018 
     48 O          26.3455    3.2216  -11.1467 O.2       7 UNK        -0.5186 
     49 N          27.1243    3.3576   -9.0159 N.am      8 UNK        -0.4240 
     50 CA         28.4501    3.9448   -9.2416 C.3       8 UNK         0.0235 
     51 CB         28.3409    5.3549   -9.8604 C.3       8 UNK        -0.2000 
     52 C          29.4002    3.0145  -10.0215 C.2       8 UNK         0.4941 
     53 O          30.3189    3.4965  -10.6867 O.2       8 UNK        -0.5273 
     54 N          29.1767    1.6976   -9.9105 N.am      9 UNK        -0.4262 
     55 CA         30.0543    0.6577  -10.4424 C.3       9 UNK         0.0264 
     56 CB         29.2543   -0.6373  -10.6622 C.3       9 UNK        -0.1955 
     57 C          31.2357    0.4222   -9.4927 C.2       9 UNK         0.5031 
     58 O          32.3689    0.3135   -9.9611 O.2       9 UNK        -0.5390 
     59 N          30.9397    0.3668   -8.1822 N.am      10 UNK        -0.4204 
     60 CA         31.8708    0.2985   -7.0464 C.3       10 UNK         0.0237 
     61 CB         32.4129    1.7094   -6.7411 C.3       10 UNK        -0.1985 
     62 C          32.9915   -0.7516   -7.2058 C.2       10 UNK         0.4970 
     63 O          34.1611   -0.4487   -6.9641 O.2       10 UNK        -0.4914 
     64 N          32.5998   -1.9593   -7.6313 N.am      11 UNK        -0.4285 
     65 CA         33.4683   -3.1164   -7.9177 C.3       11 UNK         0.1007 
     66 C          34.3523   -2.9769   -9.1952 C.2       11 UNK         0.5703 
     67 N          34.1831   -1.9567  -10.0281 N.am      11 UNK        -0.7361 
     68 O          35.1910   -3.8352   -9.4610 O.2       11 UNK        -0.4986 
     69 C69        34.2916   -3.6129   -6.6903 C.3       12 UNK        -0.0947 
     70 S70        33.2795   -3.8422   -5.1894 S.3       12 UNK        -0.2240 
     71 C71        34.0388   -2.6298   -4.0628 C.3       12 UNK         0.0194 
     72 H72        27.2653   -7.9342   -4.4152 H         1 UNK         0.0906 
     73 H73        27.0094   -6.6410   -5.5905 H         1 UNK         0.0906 
     74 H74        28.5751   -6.8140   -4.7955 H         1 UNK         0.0906 
     75 H75        28.8805   -5.2708   -3.1991 H         1 UNK         0.3140 
     76 H76        27.0544   -4.7232   -1.0863 H         1 UNK         0.1085 
     77 H77        29.4240   -3.0818   -2.0967 H         1 UNK         0.0836 
     78 H78        28.6556   -2.8623   -0.5390 H         1 UNK         0.0836 
     79 H79        32.2101   -4.1937    0.4737 H         1 UNK         0.0731 
     80 H80        30.9506   -3.0874    0.9644 H         1 UNK         0.0731 
     81 H81        33.2440   -3.9845   -1.8407 H         1 UNK         0.1312 
     82 H82        32.5516   -0.3489   -4.0056 H         1 UNK         0.1406 
     83 H83        30.4381   -1.1005   -0.3557 H         1 UNK         0.1631 
     84 H84        30.8877    1.2051   -3.3030 H         1 UNK         0.0717 
     85 H85        30.6671    1.3480   -1.5669 H         1 UNK         0.0717 
     86 H86        27.0377    1.7181   -2.8583 H         1 UNK         0.0934 
     87 H87        28.5660    2.5332   -3.0470 H         1 UNK         0.0934 
     88 H88        28.8581    1.7703   -5.3048 H         1 UNK         0.0739 
     89 H89        27.0869   -0.4056   -4.6797 H         1 UNK         0.3093 
     90 H90        26.7149   -1.5656   -8.0024 H         1 UNK         0.0818 
     91 H91        28.9808   -2.4310   -7.4806 H         1 UNK         0.0819 
     92 H92        28.5355   -2.6880   -5.8002 H         1 UNK         0.0819 
     93 H93        27.7695   -3.6354   -7.0742 H         1 UNK         0.0819 
     94 H94        26.0910   -2.5076   -5.3066 H         1 UNK         0.3041 
     95 H95        22.8168   -1.0610   -5.2568 H         1 UNK         0.0784 
     96 H96        22.5690   -3.1121   -6.6763 H         1 UNK         0.0793 
     97 H97        23.6818   -3.9815   -5.6278 H         1 UNK         0.0793 
     98 H98        22.1271   -3.4258   -5.0066 H         1 UNK         0.0793 
     99 H99        24.0854   -2.8411   -3.4443 H         1 UNK         0.3024 
    100 H100       25.9489   -0.4655   -1.5856 H         1 UNK         0.1171 
    101 H101       24.5020   -1.1467    0.2860 H         1 UNK         0.0786 
    102 H102       23.5876   -0.1216   -0.8046 H         1 UNK         0.0786 
    103 H103       23.3310   -1.8611   -0.8236 H         1 UNK         0.0786 
    104 H104       25.7261   -2.9697   -0.7282 H         1 UNK         0.2977 
    105 H105       25.3126    1.5077   -4.7495 H         1 UNK         0.3127 
    106 H106       24.6242    4.1874   -5.2981 H         1 UNK         0.0770 
    107 H107       22.9725    1.6197   -5.5948 H         1 UNK         0.0814 
    108 H108       22.3126    3.2502   -5.5443 H         1 UNK         0.0814 
    109 H109       23.1248    2.5916   -4.1326 H         1 UNK         0.0814 
    110 H110       24.9335    1.3973   -7.5239 H         1 UNK         0.2983 
    111 H111       24.0862    2.8113   -9.8868 H         1 UNK         0.0947 
    112 H112       25.0253    0.8017  -11.0463 H         1 UNK         0.0806 
    113 H113       24.0089    0.3311   -9.6960 H         1 UNK         0.0806 
    114 H114       25.7647    0.2650   -9.5440 H         1 UNK         0.0806 
    115 H115       26.9088    3.1591   -8.0456 H         1 UNK         0.3000 
    116 H116       28.8959    4.0572   -8.2521 H         1 UNK         0.0850 
    117 H117       29.3121    5.8509   -9.8765 H         1 UNK         0.0810 
    118 H118       27.6649    5.9882   -9.2857 H         1 UNK         0.0810 
    119 H119       27.9783    5.3210  -10.8880 H         1 UNK         0.0810 
    120 H120       28.4463    1.3903   -9.2760 H         1 UNK         0.3040 
    121 H121       30.4505    0.9818  -11.4073 H         1 UNK         0.0766 
    122 H122       28.4389   -0.4808  -11.3686 H         1 UNK         0.0812 
    123 H123       28.8230   -1.0170   -9.7357 H         1 UNK         0.0812 
    124 H124       29.8913   -1.4225  -11.0717 H         1 UNK         0.0812 
    125 H125       29.9552    0.4447   -7.9329 H         1 UNK         0.3205 
    126 H126       31.2790   -0.0197   -6.1865 H         1 UNK         0.0754 
    127 H127       33.0353    1.7085   -5.8453 H         1 UNK         0.0769 
    128 H128       31.6013    2.4166   -6.5690 H         1 UNK         0.0769 
    129 H129       33.0203    2.0905   -7.5630 H         1 UNK         0.0769 
    130 H130       31.6206   -2.0991   -7.8279 H         1 UNK         0.2981 
    131 H131       32.7719   -3.9177   -8.1665 H         1 UNK         0.0541 
    132 H132       33.5089   -1.2199   -9.8407 H         1 UNK         0.3459 
    133 H133       34.7602   -1.9008  -10.8516 H         1 UNK         0.3459 
    134 H134       35.1187   -2.9325   -6.4832 H         1 UNK         0.0612 
    135 H135       34.7526   -4.5765   -6.9137 H         1 UNK         0.0612 
    136 H136       34.9178   -3.0744   -3.5940 H         1 UNK         0.0624 
    137 H137       34.3927   -1.7632   -4.6215 H         1 UNK         0.0624 
@<TRIPOS>BOND
     1    1    2 1    
     2    1   72 1    
     3    1   73 1    
     4    1   74 1    
     5    2    3 2    
     6    2    4 am   BACKBONE|DICT|INTERRES
     7    4    5 1    
     8    4   75 1    
     9    5    6 1    
    10    5   35 1    
    11    5   76 1    
    12    6    7 1    
    13    6   77 1    
    14    6   78 1    
    15    7    8 1    
    16    8    9 1    
    17    8   79 1    
    18    8   80 1    
    19    9   10 ar   
    20    9   14 ar   
    21   10   11 ar   
    22   10   81 1    
    23   11   12 ar   
    24   11   71 1    
    25   12   13 ar   
    26   12   82 1    
    27   13   14 ar   
    28   13   15 1    
    29   14   83 1    
    30   15   16 1    
    31   15   84 1    
    32   15   85 1    
    33   16   17 1    
    34   17   18 1    
    35   17   86 1    
    36   17   87 1    
    37   18   19 1    
    38   18   37 1    
    39   18   88 1    
    40   19   20 am   BACKBONE|DICT|INTERRES
    41   19   89 1    
    42   20   21 2    
    43   20   22 1    
    44   22   23 1    
    45   22   24 1    
    46   22   90 1    
    47   23   91 1    
    48   23   92 1    
    49   23   93 1    
    50   24   25 am   BACKBONE|DICT|INTERRES
    51   24   94 1    
    52   25   26 2    
    53   25   27 1    
    54   27   28 1    
    55   27   29 1    
    56   27   95 1    
    57   28   96 1    
    58   28   97 1    
    59   28   98 1    
    60   29   30 am   BACKBONE|DICT|INTERRES
    61   29   99 1    
    62   30   31 2    
    63   30   32 1    
    64   32   33 1    
    65   32   34 1    
    66   32  100 1    
    67   33  101 1    
    68   33  102 1    
    69   33  103 1    
    70   34   35 am   BACKBONE|DICT|INTERRES
    71   34  104 1    
    72   35   36 2    
    73   37   38 2    
    74   37   39 am   BACKBONE|DICT|INTERRES
    75   39   40 1    
    76   39  105 1    
    77   40   41 1    
    78   40   42 1    
    79   40  106 1    
    80   41  107 1    
    81   41  108 1    
    82   41  109 1    
    83   42   43 2    
    84   42   44 am   BACKBONE|DICT|INTERRES
    85   44   45 1    
    86   44  110 1    
    87   45   46 1    
    88   45   47 1    
    89   45  111 1    
    90   46  112 1    
    91   46  113 1    
    92   46  114 1    
    93   47   48 2    
    94   47   49 am   BACKBONE|DICT|INTERRES
    95   49   50 1    
    96   49  115 1    
    97   50   51 1    
    98   50   52 1    
    99   50  116 1    
   100   51  117 1    
   101   51  118 1    
   102   51  119 1    
   103   52   53 2    
   104   52   54 am   BACKBONE|DICT|INTERRES
   105   54   55 1    
   106   54  120 1    
   107   55   56 1    
   108   55   57 1    
   109   55  121 1    
   110   56  122 1    
   111   56  123 1    
   112   56  124 1    
   113   57   58 2    
   114   57   59 am   BACKBONE|DICT|INTERRES
   115   59   60 1    
   116   59  125 1    
   117   60   61 1    
   118   60   62 1    
   119   60  126 1    
   120   61  127 1    
   121   61  128 1    
   122   61  129 1    
   123   62   63 2    
   124   62   64 am   BACKBONE|DICT|INTERRES
   125   64   65 1    
   126   64  130 1    
   127   65   66 1    
   128   65   69 1    
   129   65  131 1    
   130   66   67 am   BACKBONE|DICT|INTERRES
   131   66   68 2    
   132   67  132 1    
   133   67  133 1    
   134   69   70 1    
   135   69  134 1    
   136   69  135 1    
   137   70   71 1    
   138   71  136 1    
   139   71  137 1    
@<TRIPOS>SUBSTRUCTURE
     1 UNK         1 GROUP             0       ****    0 ROOT    
