@<TRIPOS>MOLECULE
3R137
137   139    1
SMALL
USER_CHARGES


@<TRIPOS>ATOM
      1 CA         23.2914   -5.8521   -4.3354 C.3       0 UNK        -0.2020 
      2 C          24.4467   -5.0128   -3.8128 C.2       0 UNK         0.4855 
      3 O          24.7820   -3.9942   -4.4189 O.2       0 UNK        -0.5197 
      4 N          25.0557   -5.4269   -2.6910 N.am      1 UNK        -0.4892 
      5 CA         26.1630   -4.7357   -2.0138 C.3       1 UNK         0.0835 
      6 C6         27.4491   -4.7279   -2.8927 C.3       12 UNK        -0.0855 
      7 S7         28.9957   -4.5767   -1.9397 S.3       12 UNK        -0.2931 
      8 C8         30.2221   -4.7298   -3.2873 C.3       12 UNK         0.0378 
      9 C9         31.2848   -3.6316   -3.3072 C.ar      12 UNK        -0.0802 
     10 C10        32.5614   -3.9300   -3.7955 C.ar      12 UNK        -0.0944 
     11 C11        33.5527   -2.9470   -3.8823 C.ar      12 UNK        -0.0787 
     12 C12        33.2504   -1.6438   -3.4620 C.ar      12 UNK        -0.0862 
     13 C13        31.9815   -1.3264   -2.9683 C.ar      12 UNK        -0.0733 
     14 C14        31.0050   -2.3230   -2.8964 C.ar      12 UNK        -0.0832 
     15 C15        31.6862    0.0828   -2.4695 C.3       12 UNK         0.0240 
     16 S16        31.0741    1.1783   -3.7897 S.3       12 UNK        -0.2522 
     17 C17        29.2952    0.7866   -3.8176 C.3       12 UNK        -0.0967 
     18 CA         28.6953    0.8945   -5.2426 C.3       5 UNK         0.0660 
     19 N          27.6672   -0.1191   -5.4836 N.am      5 UNK        -0.4015 
     20 C          27.2692   -0.5242   -6.6960 C.2       4 UNK         0.4946 
     21 O          27.7915   -0.1431   -7.7430 O.2       4 UNK        -0.5353 
     22 CA         26.0974   -1.5191   -6.7643 C.3       4 UNK         0.0277 
     23 CB         26.6285   -2.9544   -6.9004 C.3       4 UNK        -0.1981 
     24 N          25.1890   -1.4351   -5.6159 N.am      4 UNK        -0.4209 
     25 C          24.4382   -0.3619   -5.3259 C.2       3 UNK         0.4942 
     26 O          24.3918    0.6459   -6.0300 O.2       3 UNK        -0.5208 
     27 CA         23.6811   -0.3793   -3.9881 C.3       3 UNK         0.0250 
     28 CB         22.4180   -1.2499   -4.0777 C.3       3 UNK        -0.1990 
     29 N          24.5168   -0.8249   -2.8685 N.am      3 UNK        -0.4232 
     30 C          25.6500   -0.2375   -2.4601 C.2       2 UNK         0.4993 
     31 O          26.1163    0.7728   -2.9863 O.2       2 UNK        -0.5286 
     32 CA         26.4402   -0.9143   -1.3248 C.3       2 UNK         0.0209 
     33 CB         25.8371   -0.5894    0.0556 C.3       2 UNK        -0.1931 
     34 N          26.6314   -2.3594   -1.5283 N.am      2 UNK        -0.4546 
     35 C          25.7135   -3.3361   -1.5220 C.2       1 UNK         0.5154 
     36 O          24.5376   -3.1558   -1.1921 O.2       1 UNK        -0.5181 
     37 C          28.1453    2.2995   -5.5455 C.2       5 UNK         0.5014 
     38 O          28.7852    3.0556   -6.2762 O.2       5 UNK        -0.5248 
     39 N          26.9390    2.5979   -5.0390 N.am      6 UNK        -0.4434 
     40 CA         26.1903    3.8278   -5.3194 C.3       6 UNK         0.0363 
     41 CB         24.9175    3.8596   -4.4588 C.3       6 UNK        -0.1936 
     42 C          25.8470    3.9997   -6.8113 C.2       6 UNK         0.5081 
     43 O          25.9103    5.1171   -7.3238 O.2       6 UNK        -0.5248 
     44 N          25.5331    2.8870   -7.4888 N.am      7 UNK        -0.4718 
     45 CA         25.3119    2.8146   -8.9365 C.3       7 UNK         0.0273 
     46 CB         24.5533    1.5155   -9.2549 C.3       7 UNK        -0.1935 
     47 C          26.6039    2.8926   -9.7760 C.2       7 UNK         0.5018 
     48 O          26.5042    3.0089  -10.9981 O.2       7 UNK        -0.5186 
     49 N          27.7768    2.8051   -9.1279 N.am      8 UNK        -0.4240 
     50 CA         29.1250    2.7794   -9.7112 C.3       8 UNK         0.0235 
     51 CB         29.4559    4.1191  -10.4033 C.3       8 UNK        -0.2000 
     52 C          29.3883    1.5532  -10.6105 C.2       8 UNK         0.4941 
     53 O          30.1854    1.6385  -11.5469 O.2       8 UNK        -0.5273 
     54 N          28.7268    0.4310  -10.3015 N.am      9 UNK        -0.4262 
     55 CA         28.9502   -0.8752  -10.9195 C.3       9 UNK         0.0264 
     56 CB         27.6285   -1.6607  -10.9387 C.3       9 UNK        -0.1955 
     57 C          30.0401   -1.6580  -10.1691 C.2       9 UNK         0.5031 
     58 O          30.8200   -2.3667  -10.8078 O.2       9 UNK        -0.5390 
     59 N          30.0824   -1.5100   -8.8368 N.am      10 UNK        -0.4204 
     60 CA         31.1318   -2.0466   -7.9675 C.3       10 UNK         0.0237 
     61 CB         30.5626   -2.2599   -6.5563 C.3       10 UNK        -0.1985 
     62 C          32.3723   -1.1322   -7.9500 C.2       10 UNK         0.4970 
     63 O          32.3773   -0.0801   -8.5937 O.2       10 UNK        -0.4914 
     64 N          33.4134   -1.5639   -7.2253 N.am      11 UNK        -0.4285 
     65 CA         34.7419   -0.9285   -7.2069 C.3       11 UNK         0.1007 
     66 C          34.8295    0.4967   -6.5814 C.2       11 UNK         0.5703 
     67 N          33.8187    0.9750   -5.8682 N.am      11 UNK        -0.7361 
     68 O          35.8328    1.1833   -6.7610 O.2       11 UNK        -0.4986 
     69 C69        35.8309   -1.9078   -6.6832 C.3       12 UNK        -0.0947 
     70 S70        36.0482   -1.9941   -4.8691 S.3       12 UNK        -0.2240 
     71 C71        34.9422   -3.3609   -4.3759 C.3       12 UNK         0.0194 
     72 H72        22.3795   -5.2563   -4.3611 H         1 UNK         0.0906 
     73 H73        23.5052   -6.1920   -5.3484 H         1 UNK         0.0906 
     74 H74        23.1085   -6.7284   -3.7139 H         1 UNK         0.0906 
     75 H75        24.7078   -6.2494   -2.2173 H         1 UNK         0.3140 
     76 H76        26.3676   -5.3164   -1.1128 H         1 UNK         0.1085 
     77 H77        27.4062   -3.9483   -3.6557 H         1 UNK         0.0836 
     78 H78        27.5146   -5.6687   -3.4426 H         1 UNK         0.0836 
     79 H79        29.7202   -4.7234   -4.2558 H         1 UNK         0.0731 
     80 H80        30.6959   -5.7085   -3.1965 H         1 UNK         0.0731 
     81 H81        32.7863   -4.9394   -4.1135 H         1 UNK         0.1312 
     82 H82        34.0020   -0.8681   -3.4945 H         1 UNK         0.1406 
     83 H83        30.0276   -2.0791   -2.5099 H         1 UNK         0.1631 
     84 H84        32.5966    0.5194   -2.0560 H         1 UNK         0.0717 
     85 H85        30.9689    0.0575   -1.6477 H         1 UNK         0.0717 
     86 H86        29.1688   -0.2274   -3.4437 H         1 UNK         0.0934 
     87 H87        28.7770    1.4257   -3.0995 H         1 UNK         0.0934 
     88 H88        29.4918    0.7163   -5.9679 H         1 UNK         0.0739 
     89 H89        27.1413   -0.4283   -4.6796 H         1 UNK         0.3093 
     90 H90        25.5222   -1.2848   -7.6615 H         1 UNK         0.0818 
     91 H91        27.3031   -3.0475   -7.7524 H         1 UNK         0.0819 
     92 H92        27.1773   -3.2681   -6.0123 H         1 UNK         0.0819 
     93 H93        25.8145   -3.6629   -7.0549 H         1 UNK         0.0819 
     94 H94        25.1114   -2.2663   -5.0306 H         1 UNK         0.3041 
     95 H95        23.3721    0.6461   -3.7746 H         1 UNK         0.0784 
     96 H96        21.7760   -0.9221   -4.8966 H         1 UNK         0.0793 
     97 H97        22.6582   -2.2991   -4.2512 H         1 UNK         0.0793 
     98 H98        21.8301   -1.1893   -3.1617 H         1 UNK         0.0793 
     99 H99        24.2341   -1.6723   -2.3830 H         1 UNK         0.3024 
    100 H100       27.4409   -0.4789   -1.3445 H         1 UNK         0.1171 
    101 H101       26.4211   -1.0391    0.8585 H         1 UNK         0.0786 
    102 H102       25.8260    0.4878    0.2275 H         1 UNK         0.0786 
    103 H103       24.8091   -0.9390    0.1524 H         1 UNK         0.0786 
    104 H104       27.5693   -2.6403   -1.7857 H         1 UNK         0.2977 
    105 H105       26.4990    1.9290   -4.4095 H         1 UNK         0.3127 
    106 H106       26.8217    4.6697   -5.0278 H         1 UNK         0.0770 
    107 H107       24.2493    3.0309   -4.6951 H         1 UNK         0.0814 
    108 H108       24.3610    4.7838   -4.6196 H         1 UNK         0.0814 
    109 H109       25.1553    3.8038   -3.3963 H         1 UNK         0.0814 
    110 H110       25.4029    2.0254   -6.9644 H         1 UNK         0.2983 
    111 H111       24.6845    3.6591   -9.2297 H         1 UNK         0.0947 
    112 H112       24.2975    1.4597  -10.3138 H         1 UNK         0.0806 
    113 H113       23.6214    1.4496   -8.6929 H         1 UNK         0.0806 
    114 H114       25.1515    0.6356   -9.0185 H         1 UNK         0.0806 
    115 H115       27.7515    2.7290   -8.1175 H         1 UNK         0.3000 
    116 H116       29.8087    2.6728   -8.8675 H         1 UNK         0.0850 
    117 H117       30.5056    4.1588  -10.6967 H         1 UNK         0.0810 
    118 H118       29.2751    4.9634   -9.7381 H         1 UNK         0.0810 
    119 H119       28.8616    4.2675  -11.3053 H         1 UNK         0.0810 
    120 H120       28.1432    0.4357   -9.4678 H         1 UNK         0.3040 
    121 H121       29.2805   -0.7399  -11.9517 H         1 UNK         0.0766 
    122 H122       26.8666   -1.1355  -11.5150 H         1 UNK         0.0812 
    123 H123       27.2350   -1.8204   -9.9345 H         1 UNK         0.0812 
    124 H124       27.7643   -2.6411  -11.3970 H         1 UNK         0.0812 
    125 H125       29.3934   -0.9020   -8.4033 H         1 UNK         0.3205 
    126 H126       31.4404   -3.0187   -8.3582 H         1 UNK         0.0754 
    127 H127       31.2389   -2.8744   -5.9672 H         1 UNK         0.0769 
    128 H128       29.6063   -2.7808   -6.5804 H         1 UNK         0.0769 
    129 H129       30.4286   -1.3240   -6.0177 H         1 UNK         0.0769 
    130 H130       33.3215   -2.4086   -6.6821 H         1 UNK         0.2981 
    131 H131       34.9822   -0.7665   -8.2598 H         1 UNK         0.0541 
    132 H132       32.9889    0.4245   -5.7192 H         1 UNK         0.3459 
    133 H133       33.8860    1.9002   -5.4765 H         1 UNK         0.3459 
    134 H134       36.7964   -1.5993   -7.0877 H         1 UNK         0.0612 
    135 H135       35.6702   -2.9107   -7.0814 H         1 UNK         0.0612 
    136 H136       34.8505   -4.0677   -5.2016 H         1 UNK         0.0624 
    137 H137       35.4315   -3.9039   -3.5665 H         1 UNK         0.0624 
@<TRIPOS>BOND
     1    1    2 1    
     2    1   72 1    
     3    1   73 1    
     4    1   74 1    
     5    2    3 2    
     6    2    4 am   BACKBONE|DICT|INTERRES
     7    4    5 1    
     8    4   75 1    
     9    5    6 1    
    10    5   35 1    
    11    5   76 1    
    12    6    7 1    
    13    6   77 1    
    14    6   78 1    
    15    7    8 1    
    16    8    9 1    
    17    8   79 1    
    18    8   80 1    
    19    9   10 ar   
    20    9   14 ar   
    21   10   11 ar   
    22   10   81 1    
    23   11   12 ar   
    24   11   71 1    
    25   12   13 ar   
    26   12   82 1    
    27   13   14 ar   
    28   13   15 1    
    29   14   83 1    
    30   15   16 1    
    31   15   84 1    
    32   15   85 1    
    33   16   17 1    
    34   17   18 1    
    35   17   86 1    
    36   17   87 1    
    37   18   19 1    
    38   18   37 1    
    39   18   88 1    
    40   19   20 am   BACKBONE|DICT|INTERRES
    41   19   89 1    
    42   20   21 2    
    43   20   22 1    
    44   22   23 1    
    45   22   24 1    
    46   22   90 1    
    47   23   91 1    
    48   23   92 1    
    49   23   93 1    
    50   24   25 am   BACKBONE|DICT|INTERRES
    51   24   94 1    
    52   25   26 2    
    53   25   27 1    
    54   27   28 1    
    55   27   29 1    
    56   27   95 1    
    57   28   96 1    
    58   28   97 1    
    59   28   98 1    
    60   29   30 am   BACKBONE|DICT|INTERRES
    61   29   99 1    
    62   30   31 2    
    63   30   32 1    
    64   32   33 1    
    65   32   34 1    
    66   32  100 1    
    67   33  101 1    
    68   33  102 1    
    69   33  103 1    
    70   34   35 am   BACKBONE|DICT|INTERRES
    71   34  104 1    
    72   35   36 2    
    73   37   38 2    
    74   37   39 am   BACKBONE|DICT|INTERRES
    75   39   40 1    
    76   39  105 1    
    77   40   41 1    
    78   40   42 1    
    79   40  106 1    
    80   41  107 1    
    81   41  108 1    
    82   41  109 1    
    83   42   43 2    
    84   42   44 am   BACKBONE|DICT|INTERRES
    85   44   45 1    
    86   44  110 1    
    87   45   46 1    
    88   45   47 1    
    89   45  111 1    
    90   46  112 1    
    91   46  113 1    
    92   46  114 1    
    93   47   48 2    
    94   47   49 am   BACKBONE|DICT|INTERRES
    95   49   50 1    
    96   49  115 1    
    97   50   51 1    
    98   50   52 1    
    99   50  116 1    
   100   51  117 1    
   101   51  118 1    
   102   51  119 1    
   103   52   53 2    
   104   52   54 am   BACKBONE|DICT|INTERRES
   105   54   55 1    
   106   54  120 1    
   107   55   56 1    
   108   55   57 1    
   109   55  121 1    
   110   56  122 1    
   111   56  123 1    
   112   56  124 1    
   113   57   58 2    
   114   57   59 am   BACKBONE|DICT|INTERRES
   115   59   60 1    
   116   59  125 1    
   117   60   61 1    
   118   60   62 1    
   119   60  126 1    
   120   61  127 1    
   121   61  128 1    
   122   61  129 1    
   123   62   63 2    
   124   62   64 am   BACKBONE|DICT|INTERRES
   125   64   65 1    
   126   64  130 1    
   127   65   66 1    
   128   65   69 1    
   129   65  131 1    
   130   66   67 am   BACKBONE|DICT|INTERRES
   131   66   68 2    
   132   67  132 1    
   133   67  133 1    
   134   69   70 1    
   135   69  134 1    
   136   69  135 1    
   137   70   71 1    
   138   71  136 1    
   139   71  137 1    
@<TRIPOS>SUBSTRUCTURE
     1 UNK         1 GROUP             0       ****    0 ROOT    
