@<TRIPOS>MOLECULE
3R137
137   139    1
SMALL
USER_CHARGES


@<TRIPOS>ATOM
      1 CA         28.8549    0.4760    3.5728 C.3       0 UNK        -0.2020 
      2 C          29.0253    0.2406    2.0793 C.2       0 UNK         0.4855 
      3 O          29.6352    1.0643    1.3977 O.2       0 UNK        -0.5197 
      4 N          28.4979   -0.8813    1.5708 N.am      1 UNK        -0.4892 
      5 CA         28.5178   -1.2588    0.1528 C.3       1 UNK         0.0835 
      6 C6         28.1488   -2.7587   -0.0146 C.3       12 UNK        -0.0855 
      7 S7         28.0021   -3.3145   -1.7437 S.3       12 UNK        -0.2931 
      8 C8         29.5668   -4.2011   -2.0171 C.3       12 UNK         0.0378 
      9 C9         29.8499   -4.3171   -3.5077 C.ar      12 UNK        -0.0802 
     10 C10        30.9388   -3.6494   -4.0741 C.ar      12 UNK        -0.0944 
     11 C11        31.1571   -3.6823   -5.4558 C.ar      12 UNK        -0.0787 
     12 C12        30.2804   -4.4081   -6.2725 C.ar      12 UNK        -0.0862 
     13 C13        29.2029   -5.1052   -5.7127 C.ar      12 UNK        -0.0733 
     14 C14        28.9984   -5.0592   -4.3308 C.ar      12 UNK        -0.0832 
     15 C15        28.2692   -5.9385   -6.5795 C.3       12 UNK         0.0240 
     16 S16        26.6148   -5.1834   -6.7338 S.3       12 UNK        -0.2522 
     17 C17        26.6152   -4.5482   -8.4493 C.3       12 UNK        -0.0967 
     18 CA         26.3729   -3.0243   -8.5724 C.3       5 UNK         0.0660 
     19 N          25.1390   -2.5856   -7.9145 N.am      5 UNK        -0.4015 
     20 C          24.5710   -1.3849   -8.0989 C.2       4 UNK         0.4946 
     21 O          24.9943   -0.5432   -8.8903 O.2       4 UNK        -0.5353 
     22 CA         23.3562   -1.0432   -7.2195 C.3       4 UNK         0.0277 
     23 CB         22.0594   -1.5553   -7.8660 C.3       4 UNK        -0.1981 
     24 N          23.4653   -1.5584   -5.8502 N.am      4 UNK        -0.4209 
     25 C          24.4260   -1.2101   -4.9830 C.2       3 UNK         0.4942 
     26 O          25.3349   -0.4212   -5.2513 O.2       3 UNK        -0.5208 
     27 CA         24.4000   -1.9280   -3.6233 C.3       3 UNK         0.0250 
     28 CB         25.0920   -3.2957   -3.7440 C.3       3 UNK        -0.1990 
     29 N          25.0443   -1.1524   -2.5583 N.am      3 UNK        -0.4232 
     30 C          24.5624   -0.0072   -2.0519 C.2       2 UNK         0.4993 
     31 O          23.4991    0.4948   -2.4223 O.2       2 UNK        -0.5286 
     32 CA         25.3609    0.6863   -0.9261 C.3       2 UNK         0.0209 
     33 CB         24.4301    1.2404    0.1695 C.3       2 UNK        -0.1931 
     34 N          26.3570   -0.1815   -0.2883 N.am      2 UNK        -0.4546 
     35 C          27.6307   -0.3074   -0.6839 C.2       1 UNK         0.5154 
     36 O          28.1078    0.2950   -1.6456 O.2       1 UNK        -0.5181 
     37 C          27.6002   -2.2051   -8.1298 C.2       5 UNK         0.5014 
     38 O          28.4518   -1.9099   -8.9673 O.2       5 UNK        -0.5248 
     39 N          27.6519   -1.8164   -6.8476 N.am      6 UNK        -0.4434 
     40 CA         28.7046   -0.9681   -6.2919 C.3       6 UNK         0.0363 
     41 CB         28.6348   -0.9744   -4.7583 C.3       6 UNK        -0.1936 
     42 C          28.6244    0.4624   -6.8361 C.2       6 UNK         0.5081 
     43 O          29.6518    1.0277   -7.2114 O.2       6 UNK        -0.5248 
     44 N          27.3983    0.9989   -6.9158 N.am      7 UNK        -0.4718 
     45 CA         27.0948    2.2950   -7.5240 C.3       7 UNK         0.0273 
     46 CB         25.6222    2.6523   -7.2677 C.3       7 UNK        -0.1935 
     47 C          27.4208    2.3365   -9.0272 C.2       7 UNK         0.5018 
     48 O          27.9872    3.3270   -9.4894 O.2       7 UNK        -0.5186 
     49 N          27.0878    1.2577   -9.7522 N.am      8 UNK        -0.4240 
     50 CA         27.4072    1.0778  -11.1708 C.3       8 UNK         0.0235 
     51 CB         26.6488   -0.1374  -11.7280 C.3       8 UNK        -0.2000 
     52 C          28.9166    0.9432  -11.4324 C.2       8 UNK         0.4941 
     53 O          29.4193    1.5609  -12.3720 O.2       8 UNK        -0.5273 
     54 N          29.6127    0.1526  -10.6015 N.am      9 UNK        -0.4262 
     55 CA         31.0656   -0.0319  -10.6599 C.3       9 UNK         0.0264 
     56 CB         31.4691   -1.2238   -9.7747 C.3       9 UNK        -0.1955 
     57 C          31.8561    1.2197  -10.2437 C.2       9 UNK         0.5031 
     58 O          32.9603    1.4223  -10.7508 O.2       9 UNK        -0.5390 
     59 N          31.2925    2.0063   -9.3133 N.am      10 UNK        -0.4204 
     60 CA         31.8993    3.1515   -8.6245 C.3       10 UNK         0.0237 
     61 CB         32.1848    4.3107   -9.6029 C.3       10 UNK        -0.1985 
     62 C          33.1275    2.7302   -7.7932 C.2       10 UNK         0.4970 
     63 O          34.1275    3.4492   -7.7520 O.2       10 UNK        -0.4914 
     64 N          33.0279    1.5524   -7.1636 N.am      11 UNK        -0.4285 
     65 CA         34.0942    0.9120   -6.3805 C.3       11 UNK         0.1007 
     66 C          34.3248    1.5112   -4.9616 C.2       11 UNK         0.5703 
     67 N          33.4764    2.4068   -4.4697 N.am      11 UNK        -0.7361 
     68 O          35.3042    1.1691   -4.3028 O.2       11 UNK        -0.4986 
     69 C69        33.9215   -0.6308   -6.3583 C.3       12 UNK        -0.0947 
     70 S70        32.3334   -1.1712   -5.6452 S.3       12 UNK        -0.2240 
     71 C71        32.3500   -2.9453   -6.0554 C.3       12 UNK         0.0194 
     72 H72        28.3068   -0.3331    4.0551 H         1 UNK         0.0906 
     73 H73        29.8295    0.5582    4.0533 H         1 UNK         0.0906 
     74 H74        28.3106    1.4040    3.7460 H         1 UNK         0.0906 
     75 H75        28.0196   -1.5203    2.1906 H         1 UNK         0.3140 
     76 H76        29.5406   -1.1306   -0.2096 H         1 UNK         0.1085 
     77 H77        28.8822   -3.3813    0.5005 H         1 UNK         0.0836 
     78 H78        27.1938   -2.9679    0.4707 H         1 UNK         0.0836 
     79 H79        29.5100   -5.1943   -1.5696 H         1 UNK         0.0731 
     80 H80        30.3775   -3.6722   -1.5132 H         1 UNK         0.0731 
     81 H81        31.6057   -3.0769   -3.4441 H         1 UNK         0.1312 
     82 H82        30.4415   -4.4387   -7.3414 H         1 UNK         0.1406 
     83 H83        28.1556   -5.5801   -3.8963 H         1 UNK         0.1631 
     84 H84        28.1526   -6.9218   -6.1215 H         1 UNK         0.0717 
     85 H85        28.7095   -6.1233   -7.5598 H         1 UNK         0.0717 
     86 H86        27.5394   -4.8222   -8.9610 H         1 UNK         0.0934 
     87 H87        25.8277   -5.0774   -8.9882 H         1 UNK         0.0934 
     88 H88        26.2430   -2.8170   -9.6369 H         1 UNK         0.0739 
     89 H89        24.7347   -3.2251   -7.2464 H         1 UNK         0.3093 
     90 H90        23.2978    0.0454   -7.1556 H         1 UNK         0.0818 
     91 H91        21.1819   -1.2343   -7.3042 H         1 UNK         0.0819 
     92 H92        21.9509   -1.1675   -8.8800 H         1 UNK         0.0819 
     93 H93        22.0387   -2.6439   -7.9298 H         1 UNK         0.0819 
     94 H94        22.7589   -2.2183   -5.5563 H         1 UNK         0.3041 
     95 H95        23.3588   -2.0874   -3.3350 H         1 UNK         0.0784 
     96 H96        26.1280   -3.1969   -4.0712 H         1 UNK         0.0793 
     97 H97        25.0896   -3.8288   -2.7931 H         1 UNK         0.0793 
     98 H98        24.5844   -3.9336   -4.4684 H         1 UNK         0.0793 
     99 H99        25.9398   -1.4851   -2.2308 H         1 UNK         0.3024 
    100 H100       25.8694    1.5350   -1.3898 H         1 UNK         0.1171 
    101 H101       23.7251    1.9654   -0.2398 H         1 UNK         0.0786 
    102 H102       24.9955    1.7520    0.9488 H         1 UNK         0.0786 
    103 H103       23.8471    0.4486    0.6414 H         1 UNK         0.0786 
    104 H104       26.0443   -0.7174    0.5085 H         1 UNK         0.2977 
    105 H105       26.8917   -2.0598   -6.2303 H         1 UNK         0.3127 
    106 H106       29.6594   -1.3949   -6.5985 H         1 UNK         0.0770 
    107 H107       27.7607   -0.4459   -4.3790 H         1 UNK         0.0814 
    108 H108       29.5131   -0.4920   -4.3284 H         1 UNK         0.0814 
    109 H109       28.6000   -1.9896   -4.3697 H         1 UNK         0.0814 
    110 H110       26.6182    0.4710   -6.5344 H         1 UNK         0.2983 
    111 H111       27.7190    3.0434   -7.0310 H         1 UNK         0.0947 
    112 H112       25.3850    3.6381   -7.6699 H         1 UNK         0.0806 
    113 H113       25.3993    2.6735   -6.2007 H         1 UNK         0.0806 
    114 H114       24.9448    1.9376   -7.7355 H         1 UNK         0.0806 
    115 H115       26.5474    0.5198   -9.3071 H         1 UNK         0.3000 
    116 H116       27.0583    1.9658  -11.7023 H         1 UNK         0.0850 
    117 H117       26.8496   -0.2688  -12.7920 H         1 UNK         0.0810 
    118 H118       25.5712   -0.0188  -11.6132 H         1 UNK         0.0810 
    119 H119       26.9389   -1.0597  -11.2245 H         1 UNK         0.0810 
    120 H120       29.1145   -0.3903   -9.8991 H         1 UNK         0.3040 
    121 H121       31.3355   -0.2657  -11.6919 H         1 UNK         0.0766 
    122 H122       32.5476   -1.3854   -9.8000 H         1 UNK         0.0812 
    123 H123       30.9954   -2.1459  -10.1116 H         1 UNK         0.0812 
    124 H124       31.1870   -1.0661   -8.7327 H         1 UNK         0.0812 
    125 H125       30.4181    1.6876   -8.9038 H         1 UNK         0.3205 
    126 H126       31.1534    3.5012   -7.9091 H         1 UNK         0.0754 
    127 H127       32.5051    5.2042   -9.0657 H         1 UNK         0.0769 
    128 H128       31.2925    4.5760  -10.1702 H         1 UNK         0.0769 
    129 H129       32.9726    4.0599  -10.3137 H         1 UNK         0.0769 
    130 H130       32.1521    1.0490   -7.2073 H         1 UNK         0.2981 
    131 H131       35.0275    1.1028   -6.9136 H         1 UNK         0.0541 
    132 H132       32.6693    2.6891   -5.0012 H         1 UNK         0.3459 
    133 H133       33.6409    2.7922   -3.5534 H         1 UNK         0.3459 
    134 H134       34.7356   -1.1061   -5.8080 H         1 UNK         0.0612 
    135 H135       33.9852   -1.0159   -7.3773 H         1 UNK         0.0612 
    136 H136       32.3681   -3.0551   -7.1408 H         1 UNK         0.0624 
    137 H137       33.2697   -3.3934   -5.6773 H         1 UNK         0.0624 
@<TRIPOS>BOND
     1    1    2 1    
     2    1   72 1    
     3    1   73 1    
     4    1   74 1    
     5    2    3 2    
     6    2    4 am   BACKBONE|DICT|INTERRES
     7    4    5 1    
     8    4   75 1    
     9    5    6 1    
    10    5   35 1    
    11    5   76 1    
    12    6    7 1    
    13    6   77 1    
    14    6   78 1    
    15    7    8 1    
    16    8    9 1    
    17    8   79 1    
    18    8   80 1    
    19    9   10 ar   
    20    9   14 ar   
    21   10   11 ar   
    22   10   81 1    
    23   11   12 ar   
    24   11   71 1    
    25   12   13 ar   
    26   12   82 1    
    27   13   14 ar   
    28   13   15 1    
    29   14   83 1    
    30   15   16 1    
    31   15   84 1    
    32   15   85 1    
    33   16   17 1    
    34   17   18 1    
    35   17   86 1    
    36   17   87 1    
    37   18   19 1    
    38   18   37 1    
    39   18   88 1    
    40   19   20 am   BACKBONE|DICT|INTERRES
    41   19   89 1    
    42   20   21 2    
    43   20   22 1    
    44   22   23 1    
    45   22   24 1    
    46   22   90 1    
    47   23   91 1    
    48   23   92 1    
    49   23   93 1    
    50   24   25 am   BACKBONE|DICT|INTERRES
    51   24   94 1    
    52   25   26 2    
    53   25   27 1    
    54   27   28 1    
    55   27   29 1    
    56   27   95 1    
    57   28   96 1    
    58   28   97 1    
    59   28   98 1    
    60   29   30 am   BACKBONE|DICT|INTERRES
    61   29   99 1    
    62   30   31 2    
    63   30   32 1    
    64   32   33 1    
    65   32   34 1    
    66   32  100 1    
    67   33  101 1    
    68   33  102 1    
    69   33  103 1    
    70   34   35 am   BACKBONE|DICT|INTERRES
    71   34  104 1    
    72   35   36 2    
    73   37   38 2    
    74   37   39 am   BACKBONE|DICT|INTERRES
    75   39   40 1    
    76   39  105 1    
    77   40   41 1    
    78   40   42 1    
    79   40  106 1    
    80   41  107 1    
    81   41  108 1    
    82   41  109 1    
    83   42   43 2    
    84   42   44 am   BACKBONE|DICT|INTERRES
    85   44   45 1    
    86   44  110 1    
    87   45   46 1    
    88   45   47 1    
    89   45  111 1    
    90   46  112 1    
    91   46  113 1    
    92   46  114 1    
    93   47   48 2    
    94   47   49 am   BACKBONE|DICT|INTERRES
    95   49   50 1    
    96   49  115 1    
    97   50   51 1    
    98   50   52 1    
    99   50  116 1    
   100   51  117 1    
   101   51  118 1    
   102   51  119 1    
   103   52   53 2    
   104   52   54 am   BACKBONE|DICT|INTERRES
   105   54   55 1    
   106   54  120 1    
   107   55   56 1    
   108   55   57 1    
   109   55  121 1    
   110   56  122 1    
   111   56  123 1    
   112   56  124 1    
   113   57   58 2    
   114   57   59 am   BACKBONE|DICT|INTERRES
   115   59   60 1    
   116   59  125 1    
   117   60   61 1    
   118   60   62 1    
   119   60  126 1    
   120   61  127 1    
   121   61  128 1    
   122   61  129 1    
   123   62   63 2    
   124   62   64 am   BACKBONE|DICT|INTERRES
   125   64   65 1    
   126   64  130 1    
   127   65   66 1    
   128   65   69 1    
   129   65  131 1    
   130   66   67 am   BACKBONE|DICT|INTERRES
   131   66   68 2    
   132   67  132 1    
   133   67  133 1    
   134   69   70 1    
   135   69  134 1    
   136   69  135 1    
   137   70   71 1    
   138   71  136 1    
   139   71  137 1    
@<TRIPOS>SUBSTRUCTURE
     1 UNK         1 GROUP             0       ****    0 ROOT    
