@<TRIPOS>MOLECULE
3R137
137   139    1
SMALL
USER_CHARGES


@<TRIPOS>ATOM
      1 CA         25.2889   -6.7013   -6.8977 C.3       0 UNK        -0.2020 
      2 C          24.9900   -6.5894   -5.4100 C.2       0 UNK         0.4855 
      3 O          23.8885   -6.9320   -4.9779 O.2       0 UNK        -0.5197 
      4 N          25.9656   -6.1212   -4.6232 N.am      1 UNK        -0.4892 
      5 CA         25.8333   -5.8504   -3.1886 C.3       1 UNK         0.0835 
      6 C6         27.2172   -5.8547   -2.4856 C.3       12 UNK        -0.0855 
      7 S7         28.3957   -4.6322   -3.1600 S.3       12 UNK        -0.2931 
      8 C8         28.8106   -3.6448   -1.6843 C.3       12 UNK         0.0378 
      9 C9         29.8374   -2.5559   -1.9845 C.ar      12 UNK        -0.0802 
     10 C10        31.0086   -2.8595   -2.6888 C.ar      12 UNK        -0.0944 
     11 C11        31.9589   -1.8717   -2.9567 C.ar      12 UNK        -0.0787 
     12 C12        31.7492   -0.5739   -2.4845 C.ar      12 UNK        -0.0862 
     13 C13        30.5889   -0.2525   -1.7744 C.ar      12 UNK        -0.0733 
     14 C14        29.6371   -1.2483   -1.5262 C.ar      12 UNK        -0.0832 
     15 C15        30.3903    1.1584   -1.2343 C.3       12 UNK         0.0240 
     16 S16        29.3564    2.1927   -2.3215 S.3       12 UNK        -0.2522 
     17 C17        30.4614    2.5086   -3.7520 C.3       12 UNK        -0.0967 
     18 CA         29.8367    2.1234   -5.1190 C.3       5 UNK         0.0660 
     19 N          29.2240    0.7965   -5.0735 N.am      5 UNK        -0.4015 
     20 C          28.6821    0.1270   -6.0977 C.2       4 UNK         0.4946 
     21 O          28.7357    0.4953   -7.2698 O.2       4 UNK        -0.5353 
     22 CA         27.9014   -1.1498   -5.7394 C.3       4 UNK         0.0277 
     23 CB         28.8233   -2.3728   -5.8371 C.3       4 UNK        -0.1981 
     24 N          27.2646   -1.0977   -4.4132 N.am      4 UNK        -0.4209 
     25 C          26.3832   -0.1562   -4.0397 C.2       3 UNK         0.4942 
     26 O          25.9648    0.7168   -4.8031 O.2       3 UNK        -0.5208 
     27 CA         25.9268   -0.1718   -2.5761 C.3       3 UNK         0.0250 
     28 CB         25.1231    1.0879   -2.1888 C.3       3 UNK        -0.1990 
     29 N          25.1449   -1.3766   -2.3260 N.am      3 UNK        -0.4232 
     30 C          24.8880   -1.9045   -1.1250 C.2       2 UNK         0.4993 
     31 O          25.3272   -1.4513   -0.0677 O.2       2 UNK        -0.5286 
     32 CA         23.9994   -3.1603   -1.0930 C.3       2 UNK         0.0209 
     33 CB         22.6125   -2.9082   -1.7220 C.3       2 UNK        -0.1931 
     34 N          24.6530   -4.3452   -1.6647 N.am      2 UNK        -0.4546 
     35 C          25.0567   -4.5410   -2.9288 C.2       1 UNK         0.5154 
     36 O          24.8731   -3.7311   -3.8435 O.2       1 UNK        -0.5181 
     37 C          28.8751    3.2211   -5.6238 C.2       5 UNK         0.5014 
     38 O          29.2942    4.0672   -6.4142 O.2       5 UNK        -0.5248 
     39 N          27.6112    3.1885   -5.1761 N.am      6 UNK        -0.4434 
     40 CA         26.5693    4.1366   -5.5783 C.3       6 UNK         0.0363 
     41 CB         25.4473    4.1539   -4.5281 C.3       6 UNK        -0.1936 
     42 C          26.0067    3.8078   -6.9686 C.2       6 UNK         0.5081 
     43 O          25.6961    4.7243   -7.7295 O.2       6 UNK        -0.5248 
     44 N          25.9100    2.5090   -7.2852 N.am      7 UNK        -0.4718 
     45 CA         25.5055    2.0005   -8.5995 C.3       7 UNK         0.0273 
     46 CB         25.1554    0.5094   -8.4668 C.3       7 UNK        -0.1935 
     47 C          26.5741    2.1979   -9.6932 C.2       7 UNK         0.5018 
     48 O          26.2389    2.1078  -10.8748 O.2       7 UNK        -0.5186 
     49 N          27.8302    2.4285   -9.2794 N.am      8 UNK        -0.4240 
     50 CA         29.0543    2.4793  -10.0880 C.3       8 UNK         0.0235 
     51 CB         29.0244    3.6554  -11.0865 C.3       8 UNK        -0.2000 
     52 C          29.3725    1.1243  -10.7521 C.2       8 UNK         0.4941 
     53 O          29.9108    1.0836  -11.8605 O.2       8 UNK        -0.5273 
     54 N          29.0454    0.0306  -10.0531 N.am      9 UNK        -0.4262 
     55 CA         29.2543   -1.3472  -10.4866 C.3       9 UNK         0.0264 
     56 CB         28.1564   -2.2331   -9.8695 C.3       9 UNK        -0.1955 
     57 C          30.6685   -1.7876  -10.0867 C.2       9 UNK         0.5031 
     58 O          30.8398   -2.4508   -9.0630 O.2       9 UNK        -0.5390 
     59 N          31.6641   -1.3375  -10.8639 N.am      10 UNK        -0.4204 
     60 CA         33.1180   -1.5185  -10.7045 C.3       10 UNK         0.0237 
     61 CB         33.5137   -3.0084  -10.6976 C.3       10 UNK        -0.1985 
     62 C          33.7257   -0.7758   -9.4985 C.2       10 UNK         0.4970 
     63 O          34.8072   -0.2031   -9.6326 O.2       10 UNK        -0.4914 
     64 N          33.0187   -0.7672   -8.3644 N.am      11 UNK        -0.4285 
     65 CA         33.3508   -0.0208   -7.1417 C.3       11 UNK         0.1007 
     66 C          33.2018    1.5261   -7.2619 C.2       11 UNK         0.5703 
     67 N          32.6437    2.0676   -8.3385 N.am      11 UNK        -0.7361 
     68 O          33.6017    2.2506   -6.3542 O.2       11 UNK        -0.4986 
     69 C69        32.5409   -0.5503   -5.9317 C.3       12 UNK        -0.0947 
     70 S70        32.8884   -2.2963   -5.5366 S.3       12 UNK        -0.2240 
     71 C71        33.2155   -2.2139   -3.7462 C.3       12 UNK         0.0194 
     72 H72        26.3008   -6.3743   -7.1364 H         1 UNK         0.0906 
     73 H73        25.1799   -7.7345   -7.2263 H         1 UNK         0.0906 
     74 H74        24.5917   -6.0868   -7.4668 H         1 UNK         0.0906 
     75 H75        26.8390   -5.8181   -5.0307 H         1 UNK         0.3140 
     76 H76        25.2402   -6.6584   -2.7534 H         1 UNK         0.1085 
     77 H77        27.1071   -5.7098   -1.4094 H         1 UNK         0.0836 
     78 H78        27.6709   -6.8412   -2.5935 H         1 UNK         0.0836 
     79 H79        29.2135   -4.3025   -0.9129 H         1 UNK         0.0731 
     80 H80        27.8935   -3.2110   -1.2821 H         1 UNK         0.0731 
     81 H81        31.1776   -3.8673   -3.0429 H         1 UNK         0.1312 
     82 H82        32.4983    0.1847   -2.6628 H         1 UNK         0.1406 
     83 H83        28.7525   -1.0076   -0.9525 H         1 UNK         0.1631 
     84 H84        31.3521    1.6490   -1.0760 H         1 UNK         0.0717 
     85 H85        29.9167    1.1066   -0.2528 H         1 UNK         0.0717 
     86 H86        30.7594    3.5592   -3.7383 H         1 UNK         0.0934 
     87 H87        31.3916    1.9580   -3.6220 H         1 UNK         0.0934 
     88 H88        30.6446    2.0686   -5.8504 H         1 UNK         0.0739 
     89 H89        29.1392    0.3981   -4.1495 H         1 UNK         0.3093 
     90 H90        27.1077   -1.2635   -6.4791 H         1 UNK         0.0818 
     91 H91        29.3705   -2.3848   -6.7801 H         1 UNK         0.0819 
     92 H92        29.5675   -2.3828   -5.0415 H         1 UNK         0.0819 
     93 H93        28.2546   -3.3005   -5.7861 H         1 UNK         0.0819 
     94 H94        27.5373   -1.8117   -3.7519 H         1 UNK         0.3041 
     95 H95        26.8258   -0.1998   -1.9596 H         1 UNK         0.0784 
     96 H96        25.7080    1.9909   -2.3668 H         1 UNK         0.0793 
     97 H97        24.2014    1.1712   -2.7659 H         1 UNK         0.0793 
     98 H98        24.8568    1.0863   -1.1320 H         1 UNK         0.0793 
     99 H99        24.8317   -1.8960   -3.1432 H         1 UNK         0.3024 
    100 H100       23.8331   -3.3893   -0.0385 H         1 UNK         0.1171 
    101 H101       21.9592   -3.7708   -1.5910 H         1 UNK         0.0786 
    102 H102       22.1215   -2.0568   -1.2488 H         1 UNK         0.0786 
    103 H103       22.6687   -2.6950   -2.7896 H         1 UNK         0.0786 
    104 H104       24.8704   -5.0662   -0.9900 H         1 UNK         0.2977 
    105 H105       27.3193    2.4223   -4.5830 H         1 UNK         0.3127 
    106 H106       27.0067    5.1367   -5.6211 H         1 UNK         0.0770 
    107 H107       24.9340    3.1939   -4.4662 H         1 UNK         0.0814 
    108 H108       24.6970    4.9057   -4.7762 H         1 UNK         0.0814 
    109 H109       25.8329    4.3956   -3.5375 H         1 UNK         0.0814 
    110 H110       26.1252    1.8224   -6.5691 H         1 UNK         0.2983 
    111 H111       24.6094    2.5397   -8.9143 H         1 UNK         0.0947 
    112 H112       24.7602    0.1171   -9.4048 H         1 UNK         0.0806 
    113 H113       24.3986    0.3425   -7.6999 H         1 UNK         0.0806 
    114 H114       26.0315   -0.0863   -8.2113 H         1 UNK         0.0806 
    115 H115       27.9817    2.4160   -8.2787 H         1 UNK         0.3000 
    116 H116       29.8661    2.6667   -9.3836 H         1 UNK         0.0850 
    117 H117       29.9923    3.7767  -11.5744 H         1 UNK         0.0810 
    118 H118       28.7950    4.5953  -10.5844 H         1 UNK         0.0810 
    119 H119       28.2836    3.5035  -11.8719 H         1 UNK         0.0810 
    120 H120       28.7300    0.1607   -9.0929 H         1 UNK         0.3040 
    121 H121       29.1668   -1.4143  -11.5733 H         1 UNK         0.0766 
    122 H122       27.1693   -1.9454  -10.2317 H         1 UNK         0.0812 
    123 H123       28.1421   -2.1653   -8.7822 H         1 UNK         0.0812 
    124 H124       28.3069   -3.2812  -10.1308 H         1 UNK         0.0812 
    125 H125       31.3929   -0.7300  -11.6287 H         1 UNK         0.3205 
    126 H126       33.5625   -1.0710  -11.5951 H         1 UNK         0.0754 
    127 H127       34.5987   -3.1211  -10.6982 H         1 UNK         0.0769 
    128 H128       33.1339   -3.5237  -11.5798 H         1 UNK         0.0769 
    129 H129       33.1371   -3.5290   -9.8165 H         1 UNK         0.0769 
    130 H130       32.1625   -1.3151   -8.3439 H         1 UNK         0.2981 
    131 H131       34.4078   -0.1973   -6.9348 H         1 UNK         0.0541 
    132 H132       32.3392    1.4867   -9.1006 H         1 UNK         0.3459 
    133 H133       32.5670    3.0703   -8.3981 H         1 UNK         0.3459 
    134 H134       31.4738   -0.4618   -6.1280 H         1 UNK         0.0612 
    135 H135       32.7420    0.0568   -5.0490 H         1 UNK         0.0612 
    136 H136       33.6000   -3.1798   -3.4155 H         1 UNK         0.0624 
    137 H137       34.0072   -1.4883   -3.5536 H         1 UNK         0.0624 
@<TRIPOS>BOND
     1    1    2 1    
     2    1   72 1    
     3    1   73 1    
     4    1   74 1    
     5    2    3 2    
     6    2    4 am   BACKBONE|DICT|INTERRES
     7    4    5 1    
     8    4   75 1    
     9    5    6 1    
    10    5   35 1    
    11    5   76 1    
    12    6    7 1    
    13    6   77 1    
    14    6   78 1    
    15    7    8 1    
    16    8    9 1    
    17    8   79 1    
    18    8   80 1    
    19    9   10 ar   
    20    9   14 ar   
    21   10   11 ar   
    22   10   81 1    
    23   11   12 ar   
    24   11   71 1    
    25   12   13 ar   
    26   12   82 1    
    27   13   14 ar   
    28   13   15 1    
    29   14   83 1    
    30   15   16 1    
    31   15   84 1    
    32   15   85 1    
    33   16   17 1    
    34   17   18 1    
    35   17   86 1    
    36   17   87 1    
    37   18   19 1    
    38   18   37 1    
    39   18   88 1    
    40   19   20 am   BACKBONE|DICT|INTERRES
    41   19   89 1    
    42   20   21 2    
    43   20   22 1    
    44   22   23 1    
    45   22   24 1    
    46   22   90 1    
    47   23   91 1    
    48   23   92 1    
    49   23   93 1    
    50   24   25 am   BACKBONE|DICT|INTERRES
    51   24   94 1    
    52   25   26 2    
    53   25   27 1    
    54   27   28 1    
    55   27   29 1    
    56   27   95 1    
    57   28   96 1    
    58   28   97 1    
    59   28   98 1    
    60   29   30 am   BACKBONE|DICT|INTERRES
    61   29   99 1    
    62   30   31 2    
    63   30   32 1    
    64   32   33 1    
    65   32   34 1    
    66   32  100 1    
    67   33  101 1    
    68   33  102 1    
    69   33  103 1    
    70   34   35 am   BACKBONE|DICT|INTERRES
    71   34  104 1    
    72   35   36 2    
    73   37   38 2    
    74   37   39 am   BACKBONE|DICT|INTERRES
    75   39   40 1    
    76   39  105 1    
    77   40   41 1    
    78   40   42 1    
    79   40  106 1    
    80   41  107 1    
    81   41  108 1    
    82   41  109 1    
    83   42   43 2    
    84   42   44 am   BACKBONE|DICT|INTERRES
    85   44   45 1    
    86   44  110 1    
    87   45   46 1    
    88   45   47 1    
    89   45  111 1    
    90   46  112 1    
    91   46  113 1    
    92   46  114 1    
    93   47   48 2    
    94   47   49 am   BACKBONE|DICT|INTERRES
    95   49   50 1    
    96   49  115 1    
    97   50   51 1    
    98   50   52 1    
    99   50  116 1    
   100   51  117 1    
   101   51  118 1    
   102   51  119 1    
   103   52   53 2    
   104   52   54 am   BACKBONE|DICT|INTERRES
   105   54   55 1    
   106   54  120 1    
   107   55   56 1    
   108   55   57 1    
   109   55  121 1    
   110   56  122 1    
   111   56  123 1    
   112   56  124 1    
   113   57   58 2    
   114   57   59 am   BACKBONE|DICT|INTERRES
   115   59   60 1    
   116   59  125 1    
   117   60   61 1    
   118   60   62 1    
   119   60  126 1    
   120   61  127 1    
   121   61  128 1    
   122   61  129 1    
   123   62   63 2    
   124   62   64 am   BACKBONE|DICT|INTERRES
   125   64   65 1    
   126   64  130 1    
   127   65   66 1    
   128   65   69 1    
   129   65  131 1    
   130   66   67 am   BACKBONE|DICT|INTERRES
   131   66   68 2    
   132   67  132 1    
   133   67  133 1    
   134   69   70 1    
   135   69  134 1    
   136   69  135 1    
   137   70   71 1    
   138   71  136 1    
   139   71  137 1    
@<TRIPOS>SUBSTRUCTURE
     1 UNK         1 GROUP             0       ****    0 ROOT    
