@<TRIPOS>MOLECULE
3R137
137   139    1
SMALL
USER_CHARGES


@<TRIPOS>ATOM
      1 CA         27.0911   -6.9301   -3.1019 C.3       0 UNK        -0.2020 
      2 C          27.9281   -5.7678   -3.6270 C.2       0 UNK         0.4855 
      3 O          28.6217   -5.9279   -4.6285 O.2       0 UNK        -0.5197 
      4 N          27.8955   -4.5875   -2.9994 N.am      1 UNK        -0.4892 
      5 CA         27.1333   -4.2194   -1.8075 C.3       1 UNK         0.0835 
      6 C6         27.8879   -4.5848   -0.4977 C.3       12 UNK        -0.0855 
      7 S7         29.3069   -3.5371   -0.0141 S.3       12 UNK        -0.2931 
      8 C8         30.5925   -3.9263   -1.2596 C.3       12 UNK         0.0378 
      9 C9         30.6718   -2.9019   -2.3925 C.ar      12 UNK        -0.0802 
     10 C10        30.9491   -3.3104   -3.7019 C.ar      12 UNK        -0.0944 
     11 C11        31.0369   -2.3728   -4.7389 C.ar      12 UNK        -0.0787 
     12 C12        30.8090   -1.0193   -4.4681 C.ar      12 UNK        -0.0862 
     13 C13        30.5338   -0.5978   -3.1654 C.ar      12 UNK        -0.0733 
     14 C14        30.4985   -1.5391   -2.1344 C.ar      12 UNK        -0.0832 
     15 C15        30.2678    0.8672   -2.8529 C.3       12 UNK         0.0240 
     16 S16        28.6382    1.0680   -2.0619 S.3       12 UNK        -0.2522 
     17 C17        27.7196    2.1667   -3.1835 C.3       12 UNK        -0.0967 
     18 CA         27.6241    1.7368   -4.6725 C.3       5 UNK         0.0660 
     19 N          27.2772    0.3265   -4.8921 N.am      5 UNK        -0.4015 
     20 C          27.2848   -0.2633   -6.1007 C.2       4 UNK         0.4946 
     21 O          27.7238    0.2738   -7.1183 O.2       4 UNK        -0.5353 
     22 CA         26.6348   -1.6507   -6.2269 C.3       4 UNK         0.0277 
     23 CB         27.6558   -2.7775   -6.0245 C.3       4 UNK        -0.1981 
     24 N          25.5203   -1.8146   -5.2950 N.am      4 UNK        -0.4209 
     25 C          24.3123   -1.2588   -5.4666 C.2       3 UNK         0.4942 
     26 O          24.0060   -0.5931   -6.4542 O.2       3 UNK        -0.5208 
     27 CA         23.2812   -1.4428   -4.3388 C.3       3 UNK         0.0250 
     28 CB         22.4270   -2.6947   -4.5925 C.3       3 UNK        -0.1990 
     29 N          23.8909   -1.5297   -3.0101 N.am      3 UNK        -0.4232 
     30 C          24.5687   -0.5363   -2.4172 C.2       2 UNK         0.4993 
     31 O          24.6884    0.5906   -2.9009 O.2       2 UNK        -0.5286 
     32 CA         25.2893   -0.8885   -1.1010 C.3       2 UNK         0.0209 
     33 CB         24.3592   -0.6636    0.1013 C.3       2 UNK        -0.1931 
     34 N          25.8215   -2.2615   -1.0662 N.am      2 UNK        -0.4546 
     35 C          26.7270   -2.7363   -1.9349 C.2       1 UNK         0.5154 
     36 O          27.1868   -2.0555   -2.8552 O.2       1 UNK        -0.5181 
     37 C          26.6302    2.6642   -5.3976 C.2       5 UNK         0.5014 
     38 O          27.0603    3.5789   -6.0998 O.2       5 UNK        -0.5248 
     39 N          25.3245    2.3948   -5.2340 N.am      6 UNK        -0.4434 
     40 CA         24.2318    3.1320   -5.8787 C.3       6 UNK         0.0363 
     41 CB         22.8827    2.6481   -5.3244 C.3       6 UNK        -0.1936 
     42 C          24.2589    3.0391   -7.4155 C.2       6 UNK         0.5081 
     43 O          23.9994    4.0378   -8.0869 O.2       6 UNK        -0.5248 
     44 N          24.6091    1.8584   -7.9437 N.am      7 UNK        -0.4718 
     45 CA         24.8288    1.6100   -9.3723 C.3       7 UNK         0.0273 
     46 CB         24.7882    0.0939   -9.6247 C.3       7 UNK        -0.1935 
     47 C          26.1462    2.2011   -9.9138 C.2       7 UNK         0.5018 
     48 O          26.3161    2.2427  -11.1331 O.2       7 UNK        -0.5186 
     49 N          27.0482    2.6257   -9.0152 N.am      8 UNK        -0.4240 
     50 CA         28.3981    3.1406   -9.2663 C.3       8 UNK         0.0235 
     51 CB         28.3451    4.4925  -10.0100 C.3       8 UNK        -0.2000 
     52 C          29.3086    2.1018   -9.9490 C.2       8 UNK         0.4941 
     53 O          30.0082    2.4291  -10.9108 O.2       8 UNK        -0.5273 
     54 N          29.2756    0.8607   -9.4441 N.am      9 UNK        -0.4262 
     55 CA         30.1129   -0.2470   -9.9065 C.3       9 UNK         0.0264 
     56 CB         29.5820   -1.5576   -9.3121 C.3       9 UNK        -0.1955 
     57 C          31.5907   -0.0318   -9.5359 C.2       9 UNK         0.5031 
     58 O          31.8893    0.4707   -8.4484 O.2       9 UNK        -0.5390 
     59 N          32.4896   -0.4280  -10.4446 N.am      10 UNK        -0.4204 
     60 CA         33.9315   -0.1689  -10.3945 C.3       10 UNK         0.0237 
     61 CB         34.4932   -0.2441  -11.8279 C.3       10 UNK        -0.1985 
     62 C          34.7055   -1.0684   -9.4072 C.2       10 UNK         0.4970 
     63 O          35.6869   -1.7030   -9.7993 O.2       10 UNK        -0.4914 
     64 N          34.2772   -1.0874   -8.1400 N.am      11 UNK        -0.4285 
     65 CA         35.0243   -1.6939   -7.0232 C.3       11 UNK         0.1007 
     66 C          36.1982   -0.8126   -6.5014 C.2       11 UNK         0.5703 
     67 N          36.3107    0.4535   -6.8879 N.am      11 UNK        -0.7361 
     68 O          37.0338   -1.2934   -5.7394 O.2       11 UNK        -0.4986 
     69 C69        34.0921   -2.1189   -5.8606 C.3       12 UNK        -0.0947 
     70 S70        33.0280   -3.5318   -6.3048 S.3       12 UNK        -0.2240 
     71 C71        31.3623   -2.8176   -6.1588 C.3       12 UNK         0.0194 
     72 H72        26.0296   -6.7374   -3.2544 H         1 UNK         0.0906 
     73 H73        27.3410   -7.8485   -3.6328 H         1 UNK         0.0906 
     74 H74        27.2687   -7.1065   -2.0425 H         1 UNK         0.0906 
     75 H75        28.4152   -3.8047   -3.3795 H         1 UNK         0.3140 
     76 H76        26.1928   -4.7730   -1.8204 H         1 UNK         0.1085 
     77 H77        28.2325   -5.6185   -0.5335 H         1 UNK         0.0836 
     78 H78        27.1829   -4.5560    0.3346 H         1 UNK         0.0836 
     79 H79        30.4277   -4.9303   -1.6533 H         1 UNK         0.0731 
     80 H80        31.5606   -3.9494   -0.7580 H         1 UNK         0.0731 
     81 H81        31.1059   -4.3586   -3.9186 H         1 UNK         0.1312 
     82 H82        30.8489   -0.2948   -5.2705 H         1 UNK         0.1406 
     83 H83        30.2971   -1.2029   -1.1268 H         1 UNK         0.1631 
     84 H84        30.3478    1.4850   -3.7468 H         1 UNK         0.0717 
     85 H85        31.0358    1.2261   -2.1666 H         1 UNK         0.0717 
     86 H86        26.7243    2.2727   -2.7478 H         1 UNK         0.0934 
     87 H87        28.1720    3.1581   -3.1162 H         1 UNK         0.0934 
     88 H88        28.5994    1.8956   -5.1356 H         1 UNK         0.0739 
     89 H89        26.9793   -0.2058   -4.0831 H         1 UNK         0.3093 
     90 H90        26.2414   -1.7446   -7.2408 H         1 UNK         0.0818 
     91 H91        28.2394   -2.6401   -5.1160 H         1 UNK         0.0819 
     92 H92        27.1723   -3.7529   -5.9727 H         1 UNK         0.0819 
     93 H93        28.3568   -2.8177   -6.8551 H         1 UNK         0.0819 
     94 H94        25.7339   -2.2740   -4.4196 H         1 UNK         0.3041 
     95 H95        22.6235   -0.5713   -4.3479 H         1 UNK         0.0784 
     96 H96        23.0267   -3.6057   -4.5751 H         1 UNK         0.0793 
     97 H97        21.9417   -2.6429   -5.5683 H         1 UNK         0.0793 
     98 H98        21.6385   -2.7957   -3.8463 H         1 UNK         0.0793 
     99 H99        23.8328   -2.4190   -2.5358 H         1 UNK         0.3024 
    100 H100       26.1365   -0.2056   -1.0095 H         1 UNK         0.1171 
    101 H101       24.8876   -0.8085    1.0438 H         1 UNK         0.0786 
    102 H102       23.9679    0.3549    0.1056 H         1 UNK         0.0786 
    103 H103       23.5047   -1.3413    0.0860 H         1 UNK         0.0786 
    104 H104       25.4803   -2.8627   -0.3296 H         1 UNK         0.2977 
    105 H105       25.0612    1.6517   -4.5925 H         1 UNK         0.3127 
    106 H106       24.3491    4.1845   -5.6121 H         1 UNK         0.0770 
    107 H107       22.6933    1.6045   -5.5746 H         1 UNK         0.0814 
    108 H108       22.0608    3.2347   -5.7369 H         1 UNK         0.0814 
    109 H109       22.8395    2.7459   -4.2394 H         1 UNK         0.0814 
    110 H110       24.7093    1.0602   -7.3232 H         1 UNK         0.2983 
    111 H111       24.0119    2.0729   -9.9301 H         1 UNK         0.0947 
    112 H112       24.8765   -0.1288  -10.6889 H         1 UNK         0.0806 
    113 H113       23.8513   -0.3433   -9.2790 H         1 UNK         0.0806 
    114 H114       25.6062   -0.4172   -9.1168 H         1 UNK         0.0806 
    115 H115       26.8045    2.5364   -8.0361 H         1 UNK         0.3000 
    116 H116       28.8374    3.3243   -8.2846 H         1 UNK         0.0850 
    117 H117       29.3394    4.9337  -10.0875 H         1 UNK         0.0810 
    118 H118       27.7134    5.2082   -9.4837 H         1 UNK         0.0810 
    119 H119       27.9584    4.3842  -11.0237 H         1 UNK         0.0810 
    120 H120       28.6949    0.6817   -8.6253 H         1 UNK         0.3040 
    121 H121       30.0271   -0.3016  -10.9939 H         1 UNK         0.0766 
    122 H122       29.5610   -1.5063   -8.2258 H         1 UNK         0.0812 
    123 H123       30.2054   -2.4072   -9.5940 H         1 UNK         0.0812 
    124 H124       28.5680   -1.7661   -9.6538 H         1 UNK         0.0812 
    125 H125       32.1535   -0.8810  -11.2826 H         1 UNK         0.3205 
    126 H126       34.0737    0.8571  -10.0478 H         1 UNK         0.0754 
    127 H127       33.9841    0.4553  -12.4916 H         1 UNK         0.0769 
    128 H128       34.3901   -1.2446  -12.2503 H         1 UNK         0.0769 
    129 H129       35.5536    0.0119  -11.8490 H         1 UNK         0.0769 
    130 H130       33.4518   -0.5422   -7.9081 H         1 UNK         0.2981 
    131 H131       35.5005   -2.6028   -7.3964 H         1 UNK         0.0541 
    132 H132       35.6301    0.8655   -7.5048 H         1 UNK         0.3459 
    133 H133       37.0807    1.0059   -6.5445 H         1 UNK         0.3459 
    134 H134       33.4902   -1.2713   -5.5306 H         1 UNK         0.0612 
    135 H135       34.6707   -2.4333   -4.9899 H         1 UNK         0.0612 
    136 H136       30.6320   -3.5606   -6.4808 H         1 UNK         0.0624 
    137 H137       31.2913   -1.9802   -6.8523 H         1 UNK         0.0624 
@<TRIPOS>BOND
     1    1    2 1    
     2    1   72 1    
     3    1   73 1    
     4    1   74 1    
     5    2    3 2    
     6    2    4 am   BACKBONE|DICT|INTERRES
     7    4    5 1    
     8    4   75 1    
     9    5    6 1    
    10    5   35 1    
    11    5   76 1    
    12    6    7 1    
    13    6   77 1    
    14    6   78 1    
    15    7    8 1    
    16    8    9 1    
    17    8   79 1    
    18    8   80 1    
    19    9   10 ar   
    20    9   14 ar   
    21   10   11 ar   
    22   10   81 1    
    23   11   12 ar   
    24   11   71 1    
    25   12   13 ar   
    26   12   82 1    
    27   13   14 ar   
    28   13   15 1    
    29   14   83 1    
    30   15   16 1    
    31   15   84 1    
    32   15   85 1    
    33   16   17 1    
    34   17   18 1    
    35   17   86 1    
    36   17   87 1    
    37   18   19 1    
    38   18   37 1    
    39   18   88 1    
    40   19   20 am   BACKBONE|DICT|INTERRES
    41   19   89 1    
    42   20   21 2    
    43   20   22 1    
    44   22   23 1    
    45   22   24 1    
    46   22   90 1    
    47   23   91 1    
    48   23   92 1    
    49   23   93 1    
    50   24   25 am   BACKBONE|DICT|INTERRES
    51   24   94 1    
    52   25   26 2    
    53   25   27 1    
    54   27   28 1    
    55   27   29 1    
    56   27   95 1    
    57   28   96 1    
    58   28   97 1    
    59   28   98 1    
    60   29   30 am   BACKBONE|DICT|INTERRES
    61   29   99 1    
    62   30   31 2    
    63   30   32 1    
    64   32   33 1    
    65   32   34 1    
    66   32  100 1    
    67   33  101 1    
    68   33  102 1    
    69   33  103 1    
    70   34   35 am   BACKBONE|DICT|INTERRES
    71   34  104 1    
    72   35   36 2    
    73   37   38 2    
    74   37   39 am   BACKBONE|DICT|INTERRES
    75   39   40 1    
    76   39  105 1    
    77   40   41 1    
    78   40   42 1    
    79   40  106 1    
    80   41  107 1    
    81   41  108 1    
    82   41  109 1    
    83   42   43 2    
    84   42   44 am   BACKBONE|DICT|INTERRES
    85   44   45 1    
    86   44  110 1    
    87   45   46 1    
    88   45   47 1    
    89   45  111 1    
    90   46  112 1    
    91   46  113 1    
    92   46  114 1    
    93   47   48 2    
    94   47   49 am   BACKBONE|DICT|INTERRES
    95   49   50 1    
    96   49  115 1    
    97   50   51 1    
    98   50   52 1    
    99   50  116 1    
   100   51  117 1    
   101   51  118 1    
   102   51  119 1    
   103   52   53 2    
   104   52   54 am   BACKBONE|DICT|INTERRES
   105   54   55 1    
   106   54  120 1    
   107   55   56 1    
   108   55   57 1    
   109   55  121 1    
   110   56  122 1    
   111   56  123 1    
   112   56  124 1    
   113   57   58 2    
   114   57   59 am   BACKBONE|DICT|INTERRES
   115   59   60 1    
   116   59  125 1    
   117   60   61 1    
   118   60   62 1    
   119   60  126 1    
   120   61  127 1    
   121   61  128 1    
   122   61  129 1    
   123   62   63 2    
   124   62   64 am   BACKBONE|DICT|INTERRES
   125   64   65 1    
   126   64  130 1    
   127   65   66 1    
   128   65   69 1    
   129   65  131 1    
   130   66   67 am   BACKBONE|DICT|INTERRES
   131   66   68 2    
   132   67  132 1    
   133   67  133 1    
   134   69   70 1    
   135   69  134 1    
   136   69  135 1    
   137   70   71 1    
   138   71  136 1    
   139   71  137 1    
@<TRIPOS>SUBSTRUCTURE
     1 UNK         1 GROUP             0       ****    0 ROOT    
