@<TRIPOS>MOLECULE
3R137
137   139    1
SMALL
USER_CHARGES


@<TRIPOS>ATOM
      1 CA         27.7536   -1.1089    1.1778 C.3       0 UNK        -0.2020 
      2 C          27.1657   -2.5095    1.3350 C.2       0 UNK         0.4855 
      3 O          26.7353   -2.8633    2.4304 O.2       0 UNK        -0.5197 
      4 N          27.1151   -3.3394    0.2826 N.am      1 UNK        -0.4892 
      5 CA         27.5756   -3.0633   -1.0879 C.3       1 UNK         0.0835 
      6 C6         28.2004   -4.3106   -1.7594 C.3       12 UNK        -0.0855 
      7 S7         29.7701   -4.7466   -0.9341 S.3       12 UNK        -0.2931 
      8 C8         31.0142   -4.4333   -2.2367 C.3       12 UNK         0.0378 
      9 C9         30.9847   -3.0268   -2.8376 C.ar      12 UNK        -0.0802 
     10 C10        31.1313   -2.8750   -4.2194 C.ar      12 UNK        -0.0944 
     11 C11        31.1519   -1.6037   -4.8084 C.ar      12 UNK        -0.0787 
     12 C12        30.9949   -0.4809   -3.9929 C.ar      12 UNK        -0.0862 
     13 C13        30.8066   -0.6099   -2.6129 C.ar      12 UNK        -0.0733 
     14 C14        30.8421   -1.8860   -2.0393 C.ar      12 UNK        -0.0832 
     15 C15        30.5691    0.6130   -1.7254 C.3       12 UNK         0.0240 
     16 S16        29.5315    1.9239   -2.4781 S.3       12 UNK        -0.2522 
     17 C17        28.0256    1.0224   -2.9831 C.3       12 UNK        -0.0967 
     18 CA         27.8187    1.0490   -4.5245 C.3       5 UNK         0.0660 
     19 N          27.3411   -0.2317   -5.0461 N.am      5 UNK        -0.4015 
     20 C          27.3719   -0.6037   -6.3337 C.2       4 UNK         0.4946 
     21 O          27.7701    0.1201   -7.2484 O.2       4 UNK        -0.5353 
     22 CA         26.8749   -2.0209   -6.6572 C.3       4 UNK         0.0277 
     23 CB         27.9826   -3.0563   -6.4074 C.3       4 UNK        -0.1981 
     24 N          25.7098   -2.3721   -5.8455 N.am      4 UNK        -0.4209 
     25 C          24.4399   -2.3029   -6.2646 C.2       3 UNK         0.4942 
     26 O          24.1107   -1.9804   -7.4060 O.2       3 UNK        -0.5208 
     27 CA         23.3393   -2.6517   -5.2439 C.3       3 UNK         0.0250 
     28 CB         22.9247   -4.1249   -5.3884 C.3       3 UNK        -0.1990 
     29 N          23.6938   -2.3867   -3.8451 N.am      3 UNK        -0.4232 
     30 C          23.9904   -1.1786   -3.3482 C.2       2 UNK         0.4993 
     31 O          24.0602   -0.1526   -4.0228 O.2       2 UNK        -0.5286 
     32 CA         24.3319   -1.1080   -1.8530 C.3       2 UNK         0.0209 
     33 CB         23.0585   -1.2201   -0.9990 C.3       2 UNK        -0.1931 
     34 N          25.3343   -2.0692   -1.3707 N.am      2 UNK        -0.4546 
     35 C          26.4937   -2.3998   -1.9622 C.2       1 UNK         0.5154 
     36 O          26.7598   -2.1465   -3.1367 O.2       1 UNK        -0.5181 
     37 C          26.9373    2.2292   -4.9769 C.2       5 UNK         0.5014 
     38 O          27.4779    3.2390   -5.4292 O.2       5 UNK        -0.5248 
     39 N          25.6039    2.0812   -4.8986 N.am      6 UNK        -0.4434 
     40 CA         24.6460    3.1011   -5.3473 C.3       6 UNK         0.0363 
     41 CB         23.2514    2.8045   -4.7739 C.3       6 UNK        -0.1936 
     42 C          24.5809    3.2220   -6.8790 C.2       6 UNK         0.5081 
     43 O          24.2782    4.3009   -7.3887 O.2       6 UNK        -0.5248 
     44 N          24.8917    2.1260   -7.5849 N.am      7 UNK        -0.4718 
     45 CA         25.0471    2.0903   -9.0412 C.3       7 UNK         0.0273 
     46 CB         24.9257    0.6345   -9.5206 C.3       7 UNK        -0.1935 
     47 C          26.3779    2.7027   -9.5188 C.2       7 UNK         0.5018 
     48 O          26.5062    2.9841  -10.7109 O.2       7 UNK        -0.5186 
     49 N          27.3341    2.8823   -8.5928 N.am      8 UNK        -0.4240 
     50 CA         28.7063    3.3562   -8.7933 C.3       8 UNK         0.0235 
     51 CB         28.7188    4.8405   -9.2170 C.3       8 UNK        -0.2000 
     52 C          29.5046    2.4428   -9.7423 C.2       8 UNK         0.4941 
     53 O          30.1785    2.9342  -10.6511 O.2       8 UNK        -0.5273 
     54 N          29.3935    1.1237   -9.5272 N.am      9 UNK        -0.4262 
     55 CA         30.0904    0.0989  -10.3065 C.3       9 UNK         0.0264 
     56 CB         29.5087   -1.2799   -9.9576 C.3       9 UNK        -0.1955 
     57 C          31.6126    0.1313  -10.0774 C.2       9 UNK         0.5031 
     58 O          32.0690    0.4723   -8.9825 O.2       9 UNK        -0.5390 
     59 N          32.3756   -0.2488  -11.1096 N.am      10 UNK        -0.4204 
     60 CA         33.8409   -0.2827  -11.1092 C.3       10 UNK         0.0237 
     61 CB         34.3421   -0.1690  -12.5619 C.3       10 UNK        -0.1985 
     62 C          34.3818   -1.5342  -10.3911 C.2       10 UNK         0.4970 
     63 O          34.9980   -2.3931  -11.0251 O.2       10 UNK        -0.4914 
     64 N          34.1173   -1.6240   -9.0835 N.am      11 UNK        -0.4285 
     65 CA         34.5087   -2.7495   -8.2173 C.3       11 UNK         0.1007 
     66 C          36.0262   -2.8177   -7.8766 C.2       11 UNK         0.5703 
     67 N          36.8180   -1.7857   -8.1447 N.am      11 UNK        -0.7361 
     68 O          36.4954   -3.8321   -7.3657 O.2       11 UNK        -0.4986 
     69 C69        33.6499   -2.8170   -6.9268 C.3       12 UNK        -0.0947 
     70 S70        31.8597   -2.8335   -7.2768 S.3       12 UNK        -0.2240 
     71 C71        31.3010   -1.3840   -6.3150 C.3       12 UNK         0.0194 
     72 H72        27.5826   -0.5214    2.0798 H         1 UNK         0.0906 
     73 H73        28.8300   -1.1624    1.0177 H         1 UNK         0.0906 
     74 H74        27.2976   -0.5714    0.3472 H         1 UNK         0.0906 
     75 H75        26.7377   -4.2661    0.4262 H         1 UNK         0.3140 
     76 H76        28.3618   -2.3118   -1.0460 H         1 UNK         0.1085 
     77 H77        28.3962   -4.1411   -2.8203 H         1 UNK         0.0836 
     78 H78        27.5195   -5.1619   -1.7104 H         1 UNK         0.0836 
     79 H79        30.8764   -5.1833   -3.0174 H         1 UNK         0.0731 
     80 H80        32.0060   -4.6085   -1.8183 H         1 UNK         0.0731 
     81 H81        31.2356   -3.7596   -4.8303 H         1 UNK         0.1312 
     82 H82        31.0010    0.5023   -4.4422 H         1 UNK         0.1406 
     83 H83        30.7414   -1.9967   -0.9683 H         1 UNK         0.1631 
     84 H84        31.5358    1.0434   -1.4615 H         1 UNK         0.0717 
     85 H85        30.1000    0.3118   -0.7876 H         1 UNK         0.0717 
     86 H86        28.1263   -0.0019   -2.6288 H         1 UNK         0.0934 
     87 H87        27.1656    1.4263   -2.4450 H         1 UNK         0.0934 
     88 H88        28.7912    1.2011   -4.9971 H         1 UNK         0.0739 
     89 H89        27.0380   -0.9145   -4.3540 H         1 UNK         0.3093 
     90 H90        26.6179   -2.0524   -7.7182 H         1 UNK         0.0818 
     91 H91        28.3530   -3.0194   -5.3818 H         1 UNK         0.0819 
     92 H92        27.6280   -4.0693   -6.5976 H         1 UNK         0.0819 
     93 H93        28.8299   -2.8873   -7.0701 H         1 UNK         0.0819 
     94 H94        25.8876   -2.5969   -4.8721 H         1 UNK         0.3041 
     95 H95        22.4744   -2.0289   -5.4826 H         1 UNK         0.0784 
     96 H96        22.6278   -4.3482   -6.4143 H         1 UNK         0.0793 
     97 H97        23.7411   -4.8010   -5.1312 H         1 UNK         0.0793 
     98 H98        22.0746   -4.3637   -4.7490 H         1 UNK         0.0793 
     99 H99        23.6975   -3.1761   -3.2155 H         1 UNK         0.3024 
    100 H100       24.7542   -0.1152   -1.6836 H         1 UNK         0.1171 
    101 H101       22.6209   -2.2177   -1.0526 H         1 UNK         0.0786 
    102 H102       23.2624   -1.0001    0.0491 H         1 UNK         0.0786 
    103 H103       22.2985   -0.5117   -1.3326 H         1 UNK         0.0786 
    104 H104       25.2192   -2.3758   -0.4149 H         1 UNK         0.2977 
    105 H105       25.2027    1.2135   -4.5444 H         1 UNK         0.3127 
    106 H106       24.9721    4.0667   -4.9542 H         1 UNK         0.0770 
    107 H107       22.8341    1.8832   -5.1822 H         1 UNK         0.0814 
    108 H108       22.5545    3.6087   -5.0134 H         1 UNK         0.0814 
    109 H109       23.2778    2.7097   -3.6883 H         1 UNK         0.0814 
    110 H110       25.1172    1.2795   -7.0822 H         1 UNK         0.2983 
    111 H111       24.2395    2.6699   -9.4939 H         1 UNK         0.0947 
    112 H112       24.9981    0.5733  -10.6073 H         1 UNK         0.0806 
    113 H113       23.9668    0.2008   -9.2361 H         1 UNK         0.0806 
    114 H114       25.7138    0.0046   -9.1069 H         1 UNK         0.0806 
    115 H115       27.1178    2.5986   -7.6459 H         1 UNK         0.3000 
    116 H116       29.1970    3.2864   -7.8210 H         1 UNK         0.0850 
    117 H117       28.2797    4.9848  -10.2046 H         1 UNK         0.0810 
    118 H118       28.1652    5.4580   -8.5096 H         1 UNK         0.0810 
    119 H119       29.7382    5.2264   -9.2552 H         1 UNK         0.0810 
    120 H120       28.8319    0.8011   -8.7425 H         1 UNK         0.3040 
    121 H121       29.8964    0.2972  -11.3628 H         1 UNK         0.0766 
    122 H122       30.0013   -2.0725  -10.5221 H         1 UNK         0.0812 
    123 H123       28.4439   -1.3301  -10.1864 H         1 UNK         0.0812 
    124 H124       29.6307   -1.5093   -8.9005 H         1 UNK         0.0812 
    125 H125       31.9227   -0.5544  -11.9593 H         1 UNK         0.3205 
    126 H126       34.2128    0.5883  -10.5649 H         1 UNK         0.0754 
    127 H127       35.4324   -0.1656  -12.5998 H         1 UNK         0.0769 
    128 H128       34.0019    0.7565  -13.0271 H         1 UNK         0.0769 
    129 H129       33.9966   -1.0007  -13.1774 H         1 UNK         0.0769 
    130 H130       33.5492   -0.8973   -8.6610 H         1 UNK         0.2981 
    131 H131       34.3000   -3.6615   -8.7800 H         1 UNK         0.0541 
    132 H132       37.7994   -1.8454   -7.9234 H         1 UNK         0.3459 
    133 H133       36.4433   -0.9492   -8.5618 H         1 UNK         0.3459 
    134 H134       33.8895   -1.9806   -6.2678 H         1 UNK         0.0612 
    135 H135       33.8796   -3.7220   -6.3615 H         1 UNK         0.0612 
    136 H136       31.9904   -0.5583   -6.4954 H         1 UNK         0.0624 
    137 H137       30.3388   -1.0580   -6.7070 H         1 UNK         0.0624 
@<TRIPOS>BOND
     1    1    2 1    
     2    1   72 1    
     3    1   73 1    
     4    1   74 1    
     5    2    3 2    
     6    2    4 am   BACKBONE|DICT|INTERRES
     7    4    5 1    
     8    4   75 1    
     9    5    6 1    
    10    5   35 1    
    11    5   76 1    
    12    6    7 1    
    13    6   77 1    
    14    6   78 1    
    15    7    8 1    
    16    8    9 1    
    17    8   79 1    
    18    8   80 1    
    19    9   10 ar   
    20    9   14 ar   
    21   10   11 ar   
    22   10   81 1    
    23   11   12 ar   
    24   11   71 1    
    25   12   13 ar   
    26   12   82 1    
    27   13   14 ar   
    28   13   15 1    
    29   14   83 1    
    30   15   16 1    
    31   15   84 1    
    32   15   85 1    
    33   16   17 1    
    34   17   18 1    
    35   17   86 1    
    36   17   87 1    
    37   18   19 1    
    38   18   37 1    
    39   18   88 1    
    40   19   20 am   BACKBONE|DICT|INTERRES
    41   19   89 1    
    42   20   21 2    
    43   20   22 1    
    44   22   23 1    
    45   22   24 1    
    46   22   90 1    
    47   23   91 1    
    48   23   92 1    
    49   23   93 1    
    50   24   25 am   BACKBONE|DICT|INTERRES
    51   24   94 1    
    52   25   26 2    
    53   25   27 1    
    54   27   28 1    
    55   27   29 1    
    56   27   95 1    
    57   28   96 1    
    58   28   97 1    
    59   28   98 1    
    60   29   30 am   BACKBONE|DICT|INTERRES
    61   29   99 1    
    62   30   31 2    
    63   30   32 1    
    64   32   33 1    
    65   32   34 1    
    66   32  100 1    
    67   33  101 1    
    68   33  102 1    
    69   33  103 1    
    70   34   35 am   BACKBONE|DICT|INTERRES
    71   34  104 1    
    72   35   36 2    
    73   37   38 2    
    74   37   39 am   BACKBONE|DICT|INTERRES
    75   39   40 1    
    76   39  105 1    
    77   40   41 1    
    78   40   42 1    
    79   40  106 1    
    80   41  107 1    
    81   41  108 1    
    82   41  109 1    
    83   42   43 2    
    84   42   44 am   BACKBONE|DICT|INTERRES
    85   44   45 1    
    86   44  110 1    
    87   45   46 1    
    88   45   47 1    
    89   45  111 1    
    90   46  112 1    
    91   46  113 1    
    92   46  114 1    
    93   47   48 2    
    94   47   49 am   BACKBONE|DICT|INTERRES
    95   49   50 1    
    96   49  115 1    
    97   50   51 1    
    98   50   52 1    
    99   50  116 1    
   100   51  117 1    
   101   51  118 1    
   102   51  119 1    
   103   52   53 2    
   104   52   54 am   BACKBONE|DICT|INTERRES
   105   54   55 1    
   106   54  120 1    
   107   55   56 1    
   108   55   57 1    
   109   55  121 1    
   110   56  122 1    
   111   56  123 1    
   112   56  124 1    
   113   57   58 2    
   114   57   59 am   BACKBONE|DICT|INTERRES
   115   59   60 1    
   116   59  125 1    
   117   60   61 1    
   118   60   62 1    
   119   60  126 1    
   120   61  127 1    
   121   61  128 1    
   122   61  129 1    
   123   62   63 2    
   124   62   64 am   BACKBONE|DICT|INTERRES
   125   64   65 1    
   126   64  130 1    
   127   65   66 1    
   128   65   69 1    
   129   65  131 1    
   130   66   67 am   BACKBONE|DICT|INTERRES
   131   66   68 2    
   132   67  132 1    
   133   67  133 1    
   134   69   70 1    
   135   69  134 1    
   136   69  135 1    
   137   70   71 1    
   138   71  136 1    
   139   71  137 1    
@<TRIPOS>SUBSTRUCTURE
     1 UNK         1 GROUP             0       ****    0 ROOT    
