@<TRIPOS>MOLECULE
3R137
137   139    1
SMALL
USER_CHARGES


@<TRIPOS>ATOM
      1 CA         28.7123   -0.2948   -2.8158 C.3       0 UNK        -0.2020 
      2 C          28.9802   -0.1126   -1.3236 C.2       0 UNK         0.4855 
      3 O          29.2143    1.0128   -0.8890 O.2       0 UNK        -0.5197 
      4 N          28.9683   -1.1691   -0.4995 N.am      1 UNK        -0.4892 
      5 CA         28.6095   -2.5470   -0.8417 C.3       1 UNK         0.0835 
      6 C6         29.1624   -3.5398    0.2103 C.3       12 UNK        -0.0855 
      7 S7         29.0780   -5.2866   -0.3183 S.3       12 UNK        -0.2931 
      8 C8         30.6494   -5.4955   -1.2191 C.3       12 UNK         0.0378 
      9 C9         30.6434   -4.7661   -2.5565 C.ar      12 UNK        -0.0802 
     10 C10        31.4996   -3.6827   -2.7777 C.ar      12 UNK        -0.0944 
     11 C11        31.5036   -3.0187   -4.0087 C.ar      12 UNK        -0.0787 
     12 C12        30.6416   -3.4512   -5.0218 C.ar      12 UNK        -0.0862 
     13 C13        29.7622   -4.5210   -4.8099 C.ar      12 UNK        -0.0733 
     14 C14        29.7806   -5.1790   -3.5763 C.ar      12 UNK        -0.0832 
     15 C15        28.8193   -5.0265   -5.9019 C.3       12 UNK         0.0240 
     16 S16        28.2668   -3.7619   -7.0949 S.3       12 UNK        -0.2522 
     17 C17        27.1781   -2.7198   -6.0716 C.3       12 UNK        -0.0967 
     18 CA         26.7198   -1.4569   -6.8443 C.3       5 UNK         0.0660 
     19 N          25.3469   -1.0647   -6.5092 N.am      5 UNK        -0.4015 
     20 C          24.6715   -0.0747   -7.1148 C.2       4 UNK         0.4946 
     21 O          25.0944    0.5200   -8.1083 O.2       4 UNK        -0.5353 
     22 CA         23.3458    0.3907   -6.4846 C.3       4 UNK         0.0277 
     23 CB         22.1566   -0.1114   -7.3181 C.3       4 UNK        -0.1981 
     24 N          23.1515    0.0022   -5.0828 N.am      4 UNK        -0.4209 
     25 C          23.9717    0.2639   -4.0528 C.2       3 UNK         0.4942 
     26 O          25.0290    0.8874   -4.1558 O.2       3 UNK        -0.5208 
     27 CA         23.5792   -0.3275   -2.6860 C.3       3 UNK         0.0250 
     28 CB         22.0701   -0.6332   -2.5557 C.3       3 UNK        -0.1990 
     29 N          24.3581   -1.5234   -2.3370 N.am      3 UNK        -0.4232 
     30 C          24.5807   -2.6159   -3.0834 C.2       2 UNK         0.4993 
     31 O          24.2547   -2.7224   -4.2678 O.2       2 UNK        -0.5286 
     32 CA         25.2989   -3.7841   -2.3803 C.3       2 UNK         0.0209 
     33 CB         25.2764   -5.0806   -3.2122 C.3       2 UNK        -0.1931 
     34 N          26.6881   -3.4698   -2.0449 N.am      2 UNK        -0.4546 
     35 C          27.0870   -2.6799   -1.0404 C.2       1 UNK         0.5154 
     36 O          26.3111   -2.0814   -0.2902 O.2       1 UNK        -0.5181 
     37 C          27.7313   -0.2902   -6.7250 C.2       5 UNK         0.5014 
     38 O          28.6973   -0.2614   -7.4871 O.2       5 UNK        -0.5248 
     39 N          27.4501    0.6968   -5.8550 N.am      6 UNK        -0.4434 
     40 CA         28.1952    1.9572   -5.7478 C.3       6 UNK         0.0363 
     41 CB         27.6295    2.7921   -4.5856 C.3       6 UNK        -0.1936 
     42 C          28.1770    2.8039   -7.0338 C.2       6 UNK         0.5081 
     43 O          29.1034    3.5840   -7.2455 O.2       6 UNK        -0.5248 
     44 N          27.1355    2.6482   -7.8616 N.am      7 UNK        -0.4718 
     45 CA         27.0299    3.2738   -9.1771 C.3       7 UNK         0.0273 
     46 CB         25.5804    3.7283   -9.4181 C.3       7 UNK        -0.1935 
     47 C          27.4879    2.3034  -10.2737 C.2       7 UNK         0.5018 
     48 O          28.2536    2.7075  -11.1485 O.2       7 UNK        -0.5186 
     49 N          27.0132    1.0493  -10.2141 N.am      8 UNK        -0.4240 
     50 CA         27.2370    0.0345  -11.2480 C.3       8 UNK         0.0235 
     51 CB         26.2873   -1.1544  -11.0305 C.3       8 UNK        -0.2000 
     52 C          28.6947   -0.4440  -11.3597 C.2       8 UNK         0.4941 
     53 O          29.1825   -0.5988  -12.4802 O.2       8 UNK        -0.5273 
     54 N          29.3613   -0.6695  -10.2190 N.am      9 UNK        -0.4262 
     55 CA         30.7562   -1.1199  -10.1523 C.3       9 UNK         0.0264 
     56 CB         30.8614   -2.2850   -9.1546 C.3       9 UNK        -0.1955 
     57 C          31.7200    0.0086   -9.7527 C.2       9 UNK         0.5031 
     58 O          32.9299   -0.2242   -9.7417 O.2       9 UNK        -0.5390 
     59 N          31.1894    1.1900   -9.4020 N.am      10 UNK        -0.4204 
     60 CA         31.8692    2.4198   -8.9626 C.3       10 UNK         0.0237 
     61 CB         32.8239    2.9547  -10.0485 C.3       10 UNK        -0.1985 
     62 C          32.5825    2.3260   -7.5982 C.2       10 UNK         0.4970 
     63 O          32.5791    3.3102   -6.8584 O.2       10 UNK        -0.4914 
     64 N          33.1855    1.1698   -7.2956 N.am      11 UNK        -0.4285 
     65 CA         33.9299    0.8504   -6.0649 C.3       11 UNK         0.1007 
     66 C          35.2422    1.6714   -5.8665 C.2       11 UNK         0.5703 
     67 N          35.7927    2.2976   -6.9004 N.am      11 UNK        -0.7361 
     68 O          35.7959    1.7150   -4.7701 O.2       11 UNK        -0.4986 
     69 C69        33.0297    0.8275   -4.7942 C.3       12 UNK        -0.0947 
     70 S70        31.6600   -0.3727   -4.9065 S.3       12 UNK        -0.2240 
     71 C71        32.4731   -1.8665   -4.2499 C.3       12 UNK         0.0194 
     72 H72        29.1696   -1.1921   -3.2268 H         1 UNK         0.0906 
     73 H73        27.6410   -0.3161   -3.0150 H         1 UNK         0.0906 
     74 H74        29.1446    0.5399   -3.3637 H         1 UNK         0.0906 
     75 H75        29.1200   -1.0008    0.4849 H         1 UNK         0.3140 
     76 H76        29.0884   -2.7845   -1.7874 H         1 UNK         0.1085 
     77 H77        30.2042   -3.3044    0.4349 H         1 UNK         0.0836 
     78 H78        28.6258   -3.4368    1.1557 H         1 UNK         0.0836 
     79 H79        30.8119   -6.5593   -1.3984 H         1 UNK         0.0731 
     80 H80        31.4777   -5.1636   -0.5910 H         1 UNK         0.0731 
     81 H81        32.1700   -3.3616   -1.9920 H         1 UNK         0.1312 
     82 H82        30.6631   -2.9478   -5.9775 H         1 UNK         0.1406 
     83 H83        29.1238   -6.0220   -3.4052 H         1 UNK         0.1631 
     84 H84        27.9364   -5.4882   -5.4576 H         1 UNK         0.0717 
     85 H85        29.3327   -5.8141   -6.4546 H         1 UNK         0.0717 
     86 H86        26.3182   -3.3387   -5.8152 H         1 UNK         0.0934 
     87 H87        27.6651   -2.4680   -5.1275 H         1 UNK         0.0934 
     88 H88        26.6789   -1.7111   -7.9031 H         1 UNK         0.0739 
     89 H89        24.9177   -1.5314   -5.7144 H         1 UNK         0.3093 
     90 H90        23.3504    1.4820   -6.5165 H         1 UNK         0.0818 
     91 H91        21.2144    0.3012   -6.9569 H         1 UNK         0.0819 
     92 H92        22.2576    0.1867   -8.3630 H         1 UNK         0.0819 
     93 H93        22.0795   -1.1993   -7.2959 H         1 UNK         0.0819 
     94 H94        22.3373   -0.5627   -4.8890 H         1 UNK         0.3041 
     95 H95        23.8277    0.4340   -1.9451 H         1 UNK         0.0784 
     96 H96        21.4648    0.2365   -2.8162 H         1 UNK         0.0793 
     97 H97        21.7576   -1.4627   -3.1912 H         1 UNK         0.0793 
     98 H98        21.8164   -0.8986   -1.5292 H         1 UNK         0.0793 
     99 H99        24.7748   -1.5205   -1.4099 H         1 UNK         0.3024 
    100 H100       24.7538   -3.9810   -1.4538 H         1 UNK         0.1171 
    101 H101       24.2543   -5.3604   -3.4714 H         1 UNK         0.0786 
    102 H102       25.8313   -4.9776   -4.1444 H         1 UNK         0.0786 
    103 H103       25.7069   -5.9145   -2.6573 H         1 UNK         0.0786 
    104 H104       27.3918   -3.9317   -2.6023 H         1 UNK         0.2977 
    105 H105       26.6097    0.6299   -5.2856 H         1 UNK         0.3127 
    106 H106       29.2368    1.7098   -5.5318 H         1 UNK         0.0770 
    107 H107       28.2255    3.6921   -4.4284 H         1 UNK         0.0814 
    108 H108       27.6224    2.2427   -3.6458 H         1 UNK         0.0814 
    109 H109       26.6057    3.1117   -4.7846 H         1 UNK         0.0814 
    110 H110       26.4240    1.9629   -7.6323 H         1 UNK         0.2983 
    111 H111       27.6681    4.1592   -9.2264 H         1 UNK         0.0947 
    112 H112       25.4803    4.2073  -10.3930 H         1 UNK         0.0806 
    113 H113       25.2651    4.4533   -8.6677 H         1 UNK         0.0806 
    114 H114       24.8781    2.8944   -9.3915 H         1 UNK         0.0806 
    115 H115       26.3637    0.8115   -9.4677 H         1 UNK         0.3000 
    116 H116       26.9743    0.4920  -12.2045 H         1 UNK         0.0850 
    117 H117       26.3476   -1.8540  -11.8652 H         1 UNK         0.0810 
    118 H118       25.2495   -0.8290  -10.9546 H         1 UNK         0.0810 
    119 H119       26.5323   -1.7115  -10.1281 H         1 UNK         0.0810 
    120 H120       28.9036   -0.5205   -9.3210 H         1 UNK         0.3040 
    121 H121       31.0846   -1.4871  -11.1266 H         1 UNK         0.0766 
    122 H122       30.6116   -1.9694   -8.1417 H         1 UNK         0.0812 
    123 H123       31.8738   -2.6899   -9.1273 H         1 UNK         0.0812 
    124 H124       30.1942   -3.1022   -9.4277 H         1 UNK         0.0812 
    125 H125       30.1808    1.2444   -9.4078 H         1 UNK         0.3205 
    126 H126       31.0780    3.1603   -8.8467 H         1 UNK         0.0754 
    127 H127       33.2382    3.9212   -9.7586 H         1 UNK         0.0769 
    128 H128       32.3040    3.0969  -10.9960 H         1 UNK         0.0769 
    129 H129       33.6645    2.2830  -10.2246 H         1 UNK         0.0769 
    130 H130       33.1815    0.4509   -8.0140 H         1 UNK         0.2981 
    131 H131       34.2860   -0.1691   -6.2146 H         1 UNK         0.0541 
    132 H132       35.3612    2.2590   -7.8094 H         1 UNK         0.3459 
    133 H133       36.6469    2.8152   -6.7661 H         1 UNK         0.3459 
    134 H134       32.6025    1.8142   -4.6113 H         1 UNK         0.0612 
    135 H135       33.6151    0.5908   -3.9045 H         1 UNK         0.0612 
    136 H136       33.2415   -2.1916   -4.9522 H         1 UNK         0.0624 
    137 H137       32.9859   -1.6077   -3.3224 H         1 UNK         0.0624 
@<TRIPOS>BOND
     1    1    2 1    
     2    1   72 1    
     3    1   73 1    
     4    1   74 1    
     5    2    3 2    
     6    2    4 am   BACKBONE|DICT|INTERRES
     7    4    5 1    
     8    4   75 1    
     9    5    6 1    
    10    5   35 1    
    11    5   76 1    
    12    6    7 1    
    13    6   77 1    
    14    6   78 1    
    15    7    8 1    
    16    8    9 1    
    17    8   79 1    
    18    8   80 1    
    19    9   10 ar   
    20    9   14 ar   
    21   10   11 ar   
    22   10   81 1    
    23   11   12 ar   
    24   11   71 1    
    25   12   13 ar   
    26   12   82 1    
    27   13   14 ar   
    28   13   15 1    
    29   14   83 1    
    30   15   16 1    
    31   15   84 1    
    32   15   85 1    
    33   16   17 1    
    34   17   18 1    
    35   17   86 1    
    36   17   87 1    
    37   18   19 1    
    38   18   37 1    
    39   18   88 1    
    40   19   20 am   BACKBONE|DICT|INTERRES
    41   19   89 1    
    42   20   21 2    
    43   20   22 1    
    44   22   23 1    
    45   22   24 1    
    46   22   90 1    
    47   23   91 1    
    48   23   92 1    
    49   23   93 1    
    50   24   25 am   BACKBONE|DICT|INTERRES
    51   24   94 1    
    52   25   26 2    
    53   25   27 1    
    54   27   28 1    
    55   27   29 1    
    56   27   95 1    
    57   28   96 1    
    58   28   97 1    
    59   28   98 1    
    60   29   30 am   BACKBONE|DICT|INTERRES
    61   29   99 1    
    62   30   31 2    
    63   30   32 1    
    64   32   33 1    
    65   32   34 1    
    66   32  100 1    
    67   33  101 1    
    68   33  102 1    
    69   33  103 1    
    70   34   35 am   BACKBONE|DICT|INTERRES
    71   34  104 1    
    72   35   36 2    
    73   37   38 2    
    74   37   39 am   BACKBONE|DICT|INTERRES
    75   39   40 1    
    76   39  105 1    
    77   40   41 1    
    78   40   42 1    
    79   40  106 1    
    80   41  107 1    
    81   41  108 1    
    82   41  109 1    
    83   42   43 2    
    84   42   44 am   BACKBONE|DICT|INTERRES
    85   44   45 1    
    86   44  110 1    
    87   45   46 1    
    88   45   47 1    
    89   45  111 1    
    90   46  112 1    
    91   46  113 1    
    92   46  114 1    
    93   47   48 2    
    94   47   49 am   BACKBONE|DICT|INTERRES
    95   49   50 1    
    96   49  115 1    
    97   50   51 1    
    98   50   52 1    
    99   50  116 1    
   100   51  117 1    
   101   51  118 1    
   102   51  119 1    
   103   52   53 2    
   104   52   54 am   BACKBONE|DICT|INTERRES
   105   54   55 1    
   106   54  120 1    
   107   55   56 1    
   108   55   57 1    
   109   55  121 1    
   110   56  122 1    
   111   56  123 1    
   112   56  124 1    
   113   57   58 2    
   114   57   59 am   BACKBONE|DICT|INTERRES
   115   59   60 1    
   116   59  125 1    
   117   60   61 1    
   118   60   62 1    
   119   60  126 1    
   120   61  127 1    
   121   61  128 1    
   122   61  129 1    
   123   62   63 2    
   124   62   64 am   BACKBONE|DICT|INTERRES
   125   64   65 1    
   126   64  130 1    
   127   65   66 1    
   128   65   69 1    
   129   65  131 1    
   130   66   67 am   BACKBONE|DICT|INTERRES
   131   66   68 2    
   132   67  132 1    
   133   67  133 1    
   134   69   70 1    
   135   69  134 1    
   136   69  135 1    
   137   70   71 1    
   138   71  136 1    
   139   71  137 1    
@<TRIPOS>SUBSTRUCTURE
     1 UNK         1 GROUP             0       ****    0 ROOT    
