@<TRIPOS>MOLECULE
3R137
137   139    1
SMALL
USER_CHARGES


@<TRIPOS>ATOM
      1 CA         25.8832   -7.8441   -0.8225 C.3       0 UNK        -0.2020 
      2 C          25.6575   -6.3878   -0.4457 C.2       0 UNK         0.4855 
      3 O          24.9229   -6.1059    0.5009 O.2       0 UNK        -0.5197 
      4 N          26.2781   -5.4581   -1.1833 N.am      1 UNK        -0.4892 
      5 CA         26.1762   -4.0074   -0.9710 C.3       1 UNK         0.0835 
      6 C6         27.4412   -3.2649   -1.4730 C.3       12 UNK        -0.0855 
      7 S7         27.8334   -3.5627   -3.2364 S.3       12 UNK        -0.2931 
      8 C8         29.4924   -4.3144   -3.1302 C.3       12 UNK         0.0378 
      9 C9         30.6093   -3.2763   -3.1733 C.ar      12 UNK        -0.0802 
     10 C10        31.4519   -3.2014   -4.2866 C.ar      12 UNK        -0.0944 
     11 C11        32.4986   -2.2745   -4.3294 C.ar      12 UNK        -0.0787 
     12 C12        32.6922   -1.4020   -3.2553 C.ar      12 UNK        -0.0862 
     13 C13        31.8602   -1.4681   -2.1347 C.ar      12 UNK        -0.0733 
     14 C14        30.8294   -2.4127   -2.0954 C.ar      12 UNK        -0.0832 
     15 C15        32.0856   -0.5381   -0.9524 C.3       12 UNK         0.0240 
     16 S16        30.6954    0.6119   -0.7236 S.3       12 UNK        -0.2522 
     17 C17        30.9327    1.7932   -2.0976 C.3       12 UNK        -0.0967 
     18 CA         30.0983    1.4746   -3.3721 C.3       5 UNK         0.0660 
     19 N          28.6998    1.1681   -3.0472 N.am      5 UNK        -0.4015 
     20 C          27.8630    0.4561   -3.8110 C.2       4 UNK         0.4946 
     21 O          28.1958   -0.0365   -4.8905 O.2       4 UNK        -0.5353 
     22 CA         26.4283    0.3038   -3.2707 C.3       4 UNK         0.0277 
     23 CB         25.6981    1.6630   -3.2031 C.3       4 UNK        -0.1981 
     24 N          25.6353   -0.6916   -4.0032 N.am      4 UNK        -0.4209 
     25 C          25.1751   -0.6396   -5.2641 C.2       3 UNK         0.4942 
     26 O          25.2733    0.3416   -6.0012 O.2       3 UNK        -0.5208 
     27 CA         24.4677   -1.8985   -5.8040 C.3       3 UNK         0.0250 
     28 CB         25.3579   -2.6328   -6.8195 C.3       3 UNK        -0.1990 
     29 N          24.0813   -2.8391   -4.7486 N.am      3 UNK        -0.4232 
     30 C          22.9758   -2.7279   -3.9996 C.2       2 UNK         0.4993 
     31 O          22.1213   -1.8558   -4.1595 O.2       2 UNK        -0.5286 
     32 CA         22.8035   -3.7554   -2.8677 C.3       2 UNK         0.0209 
     33 CB         22.0387   -4.9913   -3.3692 C.3       2 UNK        -0.1931 
     34 N          24.0731   -4.1802   -2.2668 N.am      2 UNK        -0.4546 
     35 C          24.8810   -3.3895   -1.5436 C.2       1 UNK         0.5154 
     36 O          24.6439   -2.1996   -1.3332 O.2       1 UNK        -0.5181 
     37 C          30.1560    2.6264   -4.4056 C.2       5 UNK         0.5014 
     38 O          30.6888    3.6968   -4.1046 O.2       5 UNK        -0.5248 
     39 N          29.5332    2.4232   -5.5719 N.am      6 UNK        -0.4434 
     40 CA         29.2187    3.4622   -6.5485 C.3       6 UNK         0.0363 
     41 CB         27.8024    3.9938   -6.2509 C.3       6 UNK        -0.1936 
     42 C          29.3185    2.9238   -7.9796 C.2       6 UNK         0.5081 
     43 O          29.5659    1.7332   -8.1908 O.2       6 UNK        -0.5248 
     44 N          29.1046    3.8219   -8.9512 N.am      7 UNK        -0.4718 
     45 CA         29.1586    3.5659  -10.3956 C.3       7 UNK         0.0273 
     46 CB         28.8981    4.8774  -11.1526 C.3       7 UNK        -0.1935 
     47 C          28.2072    2.4630  -10.8922 C.2       7 UNK         0.5018 
     48 O          28.5266    1.8070  -11.8823 O.2       7 UNK        -0.5186 
     49 N          27.1008    2.2264  -10.1728 N.am      8 UNK        -0.4240 
     50 CA         26.1715    1.1153  -10.4073 C.3       8 UNK         0.0235 
     51 CB         24.9411    1.2825   -9.5027 C.3       8 UNK        -0.2000 
     52 C          26.8061   -0.2771  -10.2129 C.2       8 UNK         0.4941 
     53 O          26.3750   -1.2259  -10.8684 O.2       8 UNK        -0.5273 
     54 N          27.8310   -0.3696   -9.3537 N.am      9 UNK        -0.4262 
     55 CA         28.6648   -1.5592   -9.1627 C.3       9 UNK         0.0264 
     56 CB         28.9729   -1.6987   -7.6618 C.3       9 UNK        -0.1955 
     57 C          29.9808   -1.4794   -9.9623 C.2       9 UNK         0.5031 
     58 O          30.7694   -2.4229   -9.9003 O.2       9 UNK        -0.5390 
     59 N          30.2105   -0.3573  -10.6653 N.am      10 UNK        -0.4204 
     60 CA         31.4700    0.0819  -11.2806 C.3       10 UNK         0.0237 
     61 CB         31.9141   -0.8747  -12.4082 C.3       10 UNK        -0.1985 
     62 C          32.5768    0.3539  -10.2386 C.2       10 UNK         0.4970 
     63 O          33.7567    0.1605  -10.5372 O.2       10 UNK        -0.4914 
     64 N          32.1751    0.8037   -9.0423 N.am      11 UNK        -0.4285 
     65 CA         33.0387    1.0349   -7.8726 C.3       11 UNK         0.1007 
     66 C          33.2078    2.5414   -7.5230 C.2       11 UNK         0.5703 
     67 N          32.7506    3.4732   -8.3520 N.am      11 UNK        -0.7361 
     68 O          33.7890    2.8766   -6.4940 O.2       11 UNK        -0.4986 
     69 C69        32.5492    0.2038   -6.6556 C.3       12 UNK        -0.0947 
     70 S70        32.6110   -1.5861   -7.0031 S.3       12 UNK        -0.2240 
     71 C71        33.4361   -2.2422   -5.5261 C.3       12 UNK         0.0194 
     72 H72        26.5510   -7.9462   -1.6777 H         1 UNK         0.0906 
     73 H73        26.3222   -8.3842    0.0160 H         1 UNK         0.0906 
     74 H74        24.9349   -8.3184   -1.0739 H         1 UNK         0.0906 
     75 H75        26.8661   -5.7376   -1.9569 H         1 UNK         0.3140 
     76 H76        26.1190   -3.8341    0.1064 H         1 UNK         0.1085 
     77 H77        28.2817   -3.5777   -0.8539 H         1 UNK         0.0836 
     78 H78        27.3559   -2.1891   -1.3109 H         1 UNK         0.0836 
     79 H79        29.5978   -5.0106   -3.9637 H         1 UNK         0.0731 
     80 H80        29.5821   -4.9199   -2.2274 H         1 UNK         0.0731 
     81 H81        31.3019   -3.8702   -5.1233 H         1 UNK         0.1312 
     82 H82        33.4989   -0.6824   -3.2861 H         1 UNK         0.1406 
     83 H83        30.1967   -2.4629   -1.2218 H         1 UNK         0.1631 
     84 H84        33.0140    0.0250   -1.0595 H         1 UNK         0.0717 
     85 H85        32.1958   -1.1379   -0.0479 H         1 UNK         0.0717 
     86 H86        30.6657    2.7752   -1.7017 H         1 UNK         0.0934 
     87 H87        31.9936    1.8533   -2.3473 H         1 UNK         0.0934 
     88 H88        30.5395    0.5944   -3.8452 H         1 UNK         0.0739 
     89 H89        28.3638    1.5489   -2.1752 H         1 UNK         0.3093 
     90 H90        26.5116   -0.0824   -2.2540 H         1 UNK         0.0818 
     91 H91        26.1813    2.3386   -2.4969 H         1 UNK         0.0819 
     92 H92        25.6845    2.1669   -4.1701 H         1 UNK         0.0819 
     93 H93        24.6659    1.5415   -2.8744 H         1 UNK         0.0819 
     94 H94        25.4793   -1.5520   -3.4982 H         1 UNK         0.3041 
     95 H95        23.5690   -1.5631   -6.3264 H         1 UNK         0.0784 
     96 H96        25.6737   -1.9620   -7.6202 H         1 UNK         0.0793 
     97 H97        26.2568   -3.0330   -6.3490 H         1 UNK         0.0793 
     98 H98        24.8261   -3.4621   -7.2860 H         1 UNK         0.0793 
     99 H99        24.7234   -3.5933   -4.5502 H         1 UNK         0.3024 
    100 H100       22.2076   -3.2772   -2.0865 H         1 UNK         0.1171 
    101 H101       22.5951   -5.5280   -4.1387 H         1 UNK         0.0786 
    102 H102       21.8323   -5.6873   -2.5558 H         1 UNK         0.0786 
    103 H103       21.0779   -4.7065   -3.8007 H         1 UNK         0.0786 
    104 H104       24.3415   -5.1464   -2.3851 H         1 UNK         0.2977 
    105 H105       29.1330    1.5049   -5.7541 H         1 UNK         0.3127 
    106 H106       29.9389    4.2789   -6.4652 H         1 UNK         0.0770 
    107 H107       27.5260    4.8098   -6.9191 H         1 UNK         0.0814 
    108 H108       27.7320    4.3811   -5.2342 H         1 UNK         0.0814 
    109 H109       27.0501    3.2105   -6.3584 H         1 UNK         0.0814 
    110 H110       28.9108    4.7760   -8.6812 H         1 UNK         0.2983 
    111 H111       30.1733    3.2367  -10.6275 H         1 UNK         0.0947 
    112 H112       28.9571    4.7248  -12.2315 H         1 UNK         0.0806 
    113 H113       29.6356    5.6383  -10.8962 H         1 UNK         0.0806 
    114 H114       27.9083    5.2804  -10.9345 H         1 UNK         0.0806 
    115 H115       26.9192    2.8145   -9.3726 H         1 UNK         0.3000 
    116 H116       25.8407    1.1753  -11.4465 H         1 UNK         0.0850 
    117 H117       25.2175    1.2957   -8.4485 H         1 UNK         0.0810 
    118 H118       24.2354    0.4626   -9.6442 H         1 UNK         0.0810 
    119 H119       24.4090    2.2083   -9.7220 H         1 UNK         0.0810 
    120 H120       28.1362    0.4605   -8.8545 H         1 UNK         0.3040 
    121 H121       28.1290   -2.4529   -9.4886 H         1 UNK         0.0766 
    122 H122       28.0650   -1.7184   -7.0626 H         1 UNK         0.0812 
    123 H123       29.5818   -0.8709   -7.2970 H         1 UNK         0.0812 
    124 H124       29.5205   -2.6186   -7.4535 H         1 UNK         0.0812 
    125 H125       29.4554    0.3149  -10.7257 H         1 UNK         0.3205 
    126 H126       31.2556    1.0462  -11.7430 H         1 UNK         0.0754 
    127 H127       32.7524   -0.4567  -12.9669 H         1 UNK         0.0769 
    128 H128       31.1072   -1.0496  -13.1199 H         1 UNK         0.0769 
    129 H129       32.2354   -1.8412  -12.0194 H         1 UNK         0.0769 
    130 H130       31.1864    0.9668   -8.8748 H         1 UNK         0.2981 
    131 H131       34.0507    0.6976   -8.1022 H         1 UNK         0.0541 
    132 H132       32.3112    3.2136   -9.2187 H         1 UNK         0.3459 
    133 H133       32.8862    4.4445   -8.1216 H         1 UNK         0.3459 
    134 H134       31.5241    0.4688   -6.3939 H         1 UNK         0.0612 
    135 H135       33.1557    0.4132   -5.7731 H         1 UNK         0.0612 
    136 H136       34.3331   -1.6582   -5.3148 H         1 UNK         0.0624 
    137 H137       33.7756   -3.2568   -5.7390 H         1 UNK         0.0624 
@<TRIPOS>BOND
     1    1    2 1    
     2    1   72 1    
     3    1   73 1    
     4    1   74 1    
     5    2    3 2    
     6    2    4 am   BACKBONE|DICT|INTERRES
     7    4    5 1    
     8    4   75 1    
     9    5    6 1    
    10    5   35 1    
    11    5   76 1    
    12    6    7 1    
    13    6   77 1    
    14    6   78 1    
    15    7    8 1    
    16    8    9 1    
    17    8   79 1    
    18    8   80 1    
    19    9   10 ar   
    20    9   14 ar   
    21   10   11 ar   
    22   10   81 1    
    23   11   12 ar   
    24   11   71 1    
    25   12   13 ar   
    26   12   82 1    
    27   13   14 ar   
    28   13   15 1    
    29   14   83 1    
    30   15   16 1    
    31   15   84 1    
    32   15   85 1    
    33   16   17 1    
    34   17   18 1    
    35   17   86 1    
    36   17   87 1    
    37   18   19 1    
    38   18   37 1    
    39   18   88 1    
    40   19   20 am   BACKBONE|DICT|INTERRES
    41   19   89 1    
    42   20   21 2    
    43   20   22 1    
    44   22   23 1    
    45   22   24 1    
    46   22   90 1    
    47   23   91 1    
    48   23   92 1    
    49   23   93 1    
    50   24   25 am   BACKBONE|DICT|INTERRES
    51   24   94 1    
    52   25   26 2    
    53   25   27 1    
    54   27   28 1    
    55   27   29 1    
    56   27   95 1    
    57   28   96 1    
    58   28   97 1    
    59   28   98 1    
    60   29   30 am   BACKBONE|DICT|INTERRES
    61   29   99 1    
    62   30   31 2    
    63   30   32 1    
    64   32   33 1    
    65   32   34 1    
    66   32  100 1    
    67   33  101 1    
    68   33  102 1    
    69   33  103 1    
    70   34   35 am   BACKBONE|DICT|INTERRES
    71   34  104 1    
    72   35   36 2    
    73   37   38 2    
    74   37   39 am   BACKBONE|DICT|INTERRES
    75   39   40 1    
    76   39  105 1    
    77   40   41 1    
    78   40   42 1    
    79   40  106 1    
    80   41  107 1    
    81   41  108 1    
    82   41  109 1    
    83   42   43 2    
    84   42   44 am   BACKBONE|DICT|INTERRES
    85   44   45 1    
    86   44  110 1    
    87   45   46 1    
    88   45   47 1    
    89   45  111 1    
    90   46  112 1    
    91   46  113 1    
    92   46  114 1    
    93   47   48 2    
    94   47   49 am   BACKBONE|DICT|INTERRES
    95   49   50 1    
    96   49  115 1    
    97   50   51 1    
    98   50   52 1    
    99   50  116 1    
   100   51  117 1    
   101   51  118 1    
   102   51  119 1    
   103   52   53 2    
   104   52   54 am   BACKBONE|DICT|INTERRES
   105   54   55 1    
   106   54  120 1    
   107   55   56 1    
   108   55   57 1    
   109   55  121 1    
   110   56  122 1    
   111   56  123 1    
   112   56  124 1    
   113   57   58 2    
   114   57   59 am   BACKBONE|DICT|INTERRES
   115   59   60 1    
   116   59  125 1    
   117   60   61 1    
   118   60   62 1    
   119   60  126 1    
   120   61  127 1    
   121   61  128 1    
   122   61  129 1    
   123   62   63 2    
   124   62   64 am   BACKBONE|DICT|INTERRES
   125   64   65 1    
   126   64  130 1    
   127   65   66 1    
   128   65   69 1    
   129   65  131 1    
   130   66   67 am   BACKBONE|DICT|INTERRES
   131   66   68 2    
   132   67  132 1    
   133   67  133 1    
   134   69   70 1    
   135   69  134 1    
   136   69  135 1    
   137   70   71 1    
   138   71  136 1    
   139   71  137 1    
@<TRIPOS>SUBSTRUCTURE
     1 UNK         1 GROUP             0       ****    0 ROOT    
