@<TRIPOS>MOLECULE
3R137
137   139    1
SMALL
USER_CHARGES


@<TRIPOS>ATOM
      1 CA         26.2086   -6.0133    0.3515 C.3       0 UNK        -0.2020 
      2 C          26.7767   -4.7076   -0.1834 C.2       0 UNK         0.4855 
      3 O          26.9375   -4.5670   -1.3957 O.2       0 UNK        -0.5197 
      4 N          27.0623   -3.7511    0.7122 N.am      1 UNK        -0.4892 
      5 CA         27.6483   -2.4165    0.4807 C.3       1 UNK         0.0835 
      6 C6         29.0255   -2.4322   -0.2353 C.3       12 UNK        -0.0855 
      7 S7         30.2533   -3.5537    0.5292 S.3       12 UNK        -0.2931 
      8 C8         31.8352   -2.9542   -0.1642 C.3       12 UNK         0.0378 
      9 C9         31.7194   -2.5708   -1.6336 C.ar      12 UNK        -0.0802 
     10 C10        31.5273   -3.5519   -2.6122 C.ar      12 UNK        -0.0944 
     11 C11        31.3162   -3.1889   -3.9460 C.ar      12 UNK        -0.0787 
     12 C12        31.3110   -1.8354   -4.2969 C.ar      12 UNK        -0.0862 
     13 C13        31.5323   -0.8489   -3.3321 C.ar      12 UNK        -0.0733 
     14 C14        31.7449   -1.2228   -2.0038 C.ar      12 UNK        -0.0832 
     15 C15        31.5037    0.6230   -3.7173 C.3       12 UNK         0.0240 
     16 S16        30.0399    1.4895   -3.0562 S.3       12 UNK        -0.2522 
     17 C17        28.6643    0.5034   -3.7354 C.3       12 UNK        -0.0967 
     18 CA         28.3646    0.8340   -5.2206 C.3       5 UNK         0.0660 
     19 N          27.9173   -0.3504   -5.9552 N.am      5 UNK        -0.4015 
     20 C          27.9043   -0.4479   -7.2917 C.2       4 UNK         0.4946 
     21 O          28.3579    0.4193   -8.0391 O.2       4 UNK        -0.5353 
     22 CA         27.2682   -1.7066   -7.9111 C.3       4 UNK         0.0277 
     23 CB         28.3492   -2.7549   -8.2185 C.3       4 UNK        -0.1981 
     24 N          26.2240   -2.3208   -7.0853 N.am      4 UNK        -0.4209 
     25 C          25.0992   -1.7176   -6.6753 C.2       3 UNK         0.4942 
     26 O          24.7913   -0.5674   -6.9853 O.2       3 UNK        -0.5208 
     27 CA         24.1977   -2.4888   -5.6931 C.3       3 UNK         0.0250 
     28 CB         24.4900   -4.0057   -5.6330 C.3       3 UNK        -0.1990 
     29 N          24.2436   -1.9123   -4.3410 N.am      3 UNK        -0.4232 
     30 C          25.3381   -1.6842   -3.5977 C.2       2 UNK         0.4993 
     31 O          26.4879   -1.8757   -4.0007 O.2       2 UNK        -0.5286 
     32 CA         25.1395   -1.1481   -2.1718 C.3       2 UNK         0.0209 
     33 CB         23.6922   -1.2389   -1.6440 C.3       2 UNK        -0.1931 
     34 N          26.0359   -1.8970   -1.2984 N.am      2 UNK        -0.4546 
     35 C          26.6869   -1.4355   -0.2284 C.2       1 UNK         0.5154 
     36 O          26.5533   -0.2914    0.2082 O.2       1 UNK        -0.5181 
     37 C          27.3553    1.9919   -5.3579 C.2       5 UNK         0.5014 
     38 O          27.7628    3.1325   -5.5781 O.2       5 UNK        -0.5248 
     39 N          26.0558    1.6717   -5.2613 N.am      6 UNK        -0.4434 
     40 CA         24.9495    2.6232   -5.3966 C.3       6 UNK         0.0363 
     41 CB         23.6625    1.9979   -4.8338 C.3       6 UNK        -0.1936 
     42 C          24.7490    3.0801   -6.8511 C.2       6 UNK         0.5081 
     43 O          24.4522    4.2512   -7.0858 O.2       6 UNK        -0.5248 
     44 N          24.9514    2.1571   -7.8010 N.am      7 UNK        -0.4718 
     45 CA         24.9220    2.4047   -9.2457 C.3       7 UNK         0.0273 
     46 CB         24.7877    1.0563   -9.9722 C.3       7 UNK        -0.1935 
     47 C          26.1494    3.1741   -9.7737 C.2       7 UNK         0.5018 
     48 O          26.1384    3.5774  -10.9373 O.2       7 UNK        -0.5186 
     49 N          27.1798    3.3451   -8.9304 N.am      8 UNK        -0.4240 
     50 CA         28.4696    3.9880   -9.2094 C.3       8 UNK         0.0235 
     51 CB         28.2900    5.4845   -9.5439 C.3       8 UNK        -0.2000 
     52 C          29.3137    3.2301  -10.2541 C.2       8 UNK         0.4941 
     53 O          30.0802    3.8489  -10.9944 O.2       8 UNK        -0.5273 
     54 N          29.1862    1.8963  -10.2679 N.am      9 UNK        -0.4262 
     55 CA         30.0160    0.9769  -11.0500 C.3       9 UNK         0.0264 
     56 CB         29.1834   -0.2638  -11.4120 C.3       9 UNK        -0.1955 
     57 C          31.3040    0.5813  -10.3020 C.2       9 UNK         0.5031 
     58 O          32.1854   -0.0279  -10.9100 O.2       9 UNK        -0.5390 
     59 N          31.3908    0.9237   -9.0051 N.am      10 UNK        -0.4204 
     60 CA         32.5569    0.7998   -8.1192 C.3       10 UNK         0.0237 
     61 CB         33.6535    1.8015   -8.5391 C.3       10 UNK        -0.1985 
     62 C          33.0861   -0.6414   -7.9852 C.2       10 UNK         0.4970 
     63 O          34.2981   -0.8485   -7.9069 O.2       10 UNK        -0.4914 
     64 N          32.1576   -1.6069   -7.9647 N.am      11 UNK        -0.4285 
     65 CA         32.4203   -3.0548   -7.9177 C.3       11 UNK         0.1007 
     66 C          32.9886   -3.6558   -9.2410 C.2       11 UNK         0.5703 
     67 N          33.0182   -2.9241  -10.3503 N.am      11 UNK        -0.7361 
     68 O          33.3787   -4.8202   -9.2764 O.2       11 UNK        -0.4986 
     69 C69        33.2238   -3.4744   -6.6442 C.3       12 UNK        -0.0947 
     70 S70        32.5351   -4.9244   -5.7771 S.3       12 UNK        -0.2240 
     71 C71        31.0295   -4.2520   -4.9977 C.3       12 UNK         0.0194 
     72 H72        26.8592   -6.8434    0.0776 H         1 UNK         0.0906 
     73 H73        26.1109   -6.0036    1.4370 H         1 UNK         0.0906 
     74 H74        25.2234   -6.1970   -0.0764 H         1 UNK         0.0906 
     75 H75        26.8713   -3.9468    1.6855 H         1 UNK         0.3140 
     76 H76        27.8139   -2.0034    1.4773 H         1 UNK         0.1085 
     77 H77        29.4429   -1.4234   -0.2455 H         1 UNK         0.0836 
     78 H78        28.9087   -2.7221   -1.2818 H         1 UNK         0.0836 
     79 H79        32.5929   -3.7304   -0.0483 H         1 UNK         0.0731 
     80 H80        32.1766   -2.1041    0.4286 H         1 UNK         0.0731 
     81 H81        31.4998   -4.5947   -2.3267 H         1 UNK         0.1312 
     82 H82        31.1220   -1.5499   -5.3218 H         1 UNK         0.1406 
     83 H83        31.8865   -0.4570   -1.2529 H         1 UNK         0.1631 
     84 H84        32.4029    1.1110   -3.3388 H         1 UNK         0.0717 
     85 H85        31.5289    0.7395   -4.8009 H         1 UNK         0.0717 
     86 H86        28.9052   -0.5528   -3.6131 H         1 UNK         0.0934 
     87 H87        27.7872    0.6526   -3.1025 H         1 UNK         0.0934 
     88 H88        29.2911    1.1607   -5.6975 H         1 UNK         0.0739 
     89 H89        27.5043   -1.0950   -5.3967 H         1 UNK         0.3093 
     90 H90        26.8073   -1.4050   -8.8528 H         1 UNK         0.0818 
     91 H91        29.1591   -2.3323   -8.8129 H         1 UNK         0.0819 
     92 H92        27.9387   -3.5902   -8.7862 H         1 UNK         0.0819 
     93 H93        28.7885   -3.1558   -7.3060 H         1 UNK         0.0819 
     94 H94        26.4047   -3.2546   -6.7464 H         1 UNK         0.3041 
     95 H95        23.1769   -2.3615   -6.0567 H         1 UNK         0.0784 
     96 H96        24.4433   -4.4588   -6.6244 H         1 UNK         0.0793 
     97 H97        25.4708   -4.2245   -5.2086 H         1 UNK         0.0793 
     98 H98        23.7505   -4.5176   -5.0169 H         1 UNK         0.0793 
     99 H99        23.3450   -1.6956   -3.9331 H         1 UNK         0.3024 
    100 H100       25.4439   -0.0992   -2.1852 H         1 UNK         0.1171 
    101 H101       23.6280   -0.8758   -0.6179 H         1 UNK         0.0786 
    102 H102       23.0108   -0.6262   -2.2355 H         1 UNK         0.0786 
    103 H103       23.3206   -2.2646   -1.6519 H         1 UNK         0.0786 
    104 H104       26.2707   -2.8402   -1.6059 H         1 UNK         0.2977 
    105 H105       25.8033    0.6974   -5.1828 H         1 UNK         0.3127 
    106 H106       25.1859    3.5079   -4.8010 H         1 UNK         0.0770 
    107 H107       23.7773    1.7289   -3.7838 H         1 UNK         0.0814 
    108 H108       23.3717    1.1010   -5.3818 H         1 UNK         0.0814 
    109 H109       22.8304    2.7005   -4.8977 H         1 UNK         0.0814 
    110 H110       25.0967    1.1925   -7.5088 H         1 UNK         0.2983 
    111 H111       24.0399    3.0079   -9.4711 H         1 UNK         0.0947 
    112 H112       24.6800    1.1994  -11.0483 H         1 UNK         0.0806 
    113 H113       23.9124    0.5040   -9.6296 H         1 UNK         0.0806 
    114 H114       25.6643    0.4283   -9.8139 H         1 UNK         0.0806 
    115 H115       27.0792    2.9622   -7.9997 H         1 UNK         0.3000 
    116 H116       29.0334    3.9312   -8.2769 H         1 UNK         0.0850 
    117 H117       29.2540    5.9924   -9.5923 H         1 UNK         0.0810 
    118 H118       27.6960    5.9919   -8.7837 H         1 UNK         0.0810 
    119 H119       27.7996    5.6301  -10.5067 H         1 UNK         0.0810 
    120 H120       28.5795    1.4627   -9.5745 H         1 UNK         0.3040 
    121 H121       30.3190    1.4638  -11.9793 H         1 UNK         0.0766 
    122 H122       28.3211    0.0061  -12.0219 H         1 UNK         0.0812 
    123 H123       28.8144   -0.7768  -10.5256 H         1 UNK         0.0812 
    124 H124       29.7734   -0.9805  -11.9851 H         1 UNK         0.0812 
    125 H125       30.5701    1.3481   -8.5942 H         1 UNK         0.3205 
    126 H126       32.2158    1.0876   -7.1242 H         1 UNK         0.0754 
    127 H127       34.4720    1.8150   -7.8182 H         1 UNK         0.0769 
    128 H128       33.2613    2.8168   -8.5994 H         1 UNK         0.0769 
    129 H129       34.0790    1.5489   -9.5111 H         1 UNK         0.0769 
    130 H130       31.1929   -1.3367   -8.0783 H         1 UNK         0.2981 
    131 H131       31.4245   -3.4912   -7.8489 H         1 UNK         0.0541 
    132 H132       32.7168   -1.9565  -10.3572 H         1 UNK         0.3459 
    133 H133       33.3776   -3.3375  -11.1957 H         1 UNK         0.3459 
    134 H134       34.2645   -3.6897   -6.8927 H         1 UNK         0.0612 
    135 H135       33.2851   -2.6600   -5.9238 H         1 UNK         0.0612 
    136 H136       30.4812   -5.0769   -4.5402 H         1 UNK         0.0624 
    137 H137       30.3706   -3.8498   -5.7657 H         1 UNK         0.0624 
@<TRIPOS>BOND
     1    1    2 1    
     2    1   72 1    
     3    1   73 1    
     4    1   74 1    
     5    2    3 2    
     6    2    4 am   BACKBONE|DICT|INTERRES
     7    4    5 1    
     8    4   75 1    
     9    5    6 1    
    10    5   35 1    
    11    5   76 1    
    12    6    7 1    
    13    6   77 1    
    14    6   78 1    
    15    7    8 1    
    16    8    9 1    
    17    8   79 1    
    18    8   80 1    
    19    9   10 ar   
    20    9   14 ar   
    21   10   11 ar   
    22   10   81 1    
    23   11   12 ar   
    24   11   71 1    
    25   12   13 ar   
    26   12   82 1    
    27   13   14 ar   
    28   13   15 1    
    29   14   83 1    
    30   15   16 1    
    31   15   84 1    
    32   15   85 1    
    33   16   17 1    
    34   17   18 1    
    35   17   86 1    
    36   17   87 1    
    37   18   19 1    
    38   18   37 1    
    39   18   88 1    
    40   19   20 am   BACKBONE|DICT|INTERRES
    41   19   89 1    
    42   20   21 2    
    43   20   22 1    
    44   22   23 1    
    45   22   24 1    
    46   22   90 1    
    47   23   91 1    
    48   23   92 1    
    49   23   93 1    
    50   24   25 am   BACKBONE|DICT|INTERRES
    51   24   94 1    
    52   25   26 2    
    53   25   27 1    
    54   27   28 1    
    55   27   29 1    
    56   27   95 1    
    57   28   96 1    
    58   28   97 1    
    59   28   98 1    
    60   29   30 am   BACKBONE|DICT|INTERRES
    61   29   99 1    
    62   30   31 2    
    63   30   32 1    
    64   32   33 1    
    65   32   34 1    
    66   32  100 1    
    67   33  101 1    
    68   33  102 1    
    69   33  103 1    
    70   34   35 am   BACKBONE|DICT|INTERRES
    71   34  104 1    
    72   35   36 2    
    73   37   38 2    
    74   37   39 am   BACKBONE|DICT|INTERRES
    75   39   40 1    
    76   39  105 1    
    77   40   41 1    
    78   40   42 1    
    79   40  106 1    
    80   41  107 1    
    81   41  108 1    
    82   41  109 1    
    83   42   43 2    
    84   42   44 am   BACKBONE|DICT|INTERRES
    85   44   45 1    
    86   44  110 1    
    87   45   46 1    
    88   45   47 1    
    89   45  111 1    
    90   46  112 1    
    91   46  113 1    
    92   46  114 1    
    93   47   48 2    
    94   47   49 am   BACKBONE|DICT|INTERRES
    95   49   50 1    
    96   49  115 1    
    97   50   51 1    
    98   50   52 1    
    99   50  116 1    
   100   51  117 1    
   101   51  118 1    
   102   51  119 1    
   103   52   53 2    
   104   52   54 am   BACKBONE|DICT|INTERRES
   105   54   55 1    
   106   54  120 1    
   107   55   56 1    
   108   55   57 1    
   109   55  121 1    
   110   56  122 1    
   111   56  123 1    
   112   56  124 1    
   113   57   58 2    
   114   57   59 am   BACKBONE|DICT|INTERRES
   115   59   60 1    
   116   59  125 1    
   117   60   61 1    
   118   60   62 1    
   119   60  126 1    
   120   61  127 1    
   121   61  128 1    
   122   61  129 1    
   123   62   63 2    
   124   62   64 am   BACKBONE|DICT|INTERRES
   125   64   65 1    
   126   64  130 1    
   127   65   66 1    
   128   65   69 1    
   129   65  131 1    
   130   66   67 am   BACKBONE|DICT|INTERRES
   131   66   68 2    
   132   67  132 1    
   133   67  133 1    
   134   69   70 1    
   135   69  134 1    
   136   69  135 1    
   137   70   71 1    
   138   71  136 1    
   139   71  137 1    
@<TRIPOS>SUBSTRUCTURE
     1 UNK         1 GROUP             0       ****    0 ROOT    
