@<TRIPOS>MOLECULE
3R137
137   139    1
SMALL
USER_CHARGES


@<TRIPOS>ATOM
      1 CA         27.2640   -2.5925    0.3130 C.3       0 UNK        -0.2020 
      2 C          27.5895   -1.4413   -0.6260 C.2       0 UNK         0.4855 
      3 O          27.1290   -0.3212   -0.4006 O.2       0 UNK        -0.5197 
      4 N          28.3746   -1.7114   -1.6790 N.am      1 UNK        -0.4892 
      5 CA         28.7633   -0.7616   -2.7313 C.3       1 UNK         0.0835 
      6 C6         29.6624   -1.4172   -3.8093 C.3       12 UNK        -0.0855 
      7 S7         31.1693   -2.1802   -3.1195 S.3       12 UNK        -0.2931 
      8 C8         30.8401   -3.9569   -3.3769 C.3       12 UNK         0.0378 
      9 C9         30.8615   -4.3284   -4.8533 C.ar      12 UNK        -0.0802 
     10 C10        32.0736   -4.3463   -5.5453 C.ar      12 UNK        -0.0944 
     11 C11        32.1090   -4.6453   -6.9089 C.ar      12 UNK        -0.0787 
     12 C12        30.9188   -4.9459   -7.5777 C.ar      12 UNK        -0.0862 
     13 C13        29.6956   -4.9532   -6.8973 C.ar      12 UNK        -0.0733 
     14 C14        29.6793   -4.6516   -5.5279 C.ar      12 UNK        -0.0832 
     15 C15        28.4281   -5.3273   -7.6707 C.3       12 UNK         0.0240 
     16 S16        26.8639   -4.6760   -6.9866 S.3       12 UNK        -0.2522 
     17 C17        27.0962   -2.8834   -7.2159 C.3       12 UNK        -0.0967 
     18 CA         25.7766   -2.0800   -7.0756 C.3       5 UNK         0.0660 
     19 N          25.2054   -2.2088   -5.7406 N.am      5 UNK        -0.4015 
     20 C          24.0545   -2.8096   -5.4232 C.2       4 UNK         0.4946 
     21 O          23.2652   -3.2680   -6.2503 O.2       4 UNK        -0.5353 
     22 CA         23.7303   -2.9289   -3.9270 C.3       4 UNK         0.0277 
     23 CB         24.5838   -4.0355   -3.2823 C.3       4 UNK        -0.1981 
     24 N          23.9668   -1.6692   -3.2181 N.am      4 UNK        -0.4209 
     25 C          23.0324   -0.9692   -2.5595 C.2       3 UNK         0.4942 
     26 O          21.8493   -1.3049   -2.4875 O.2       3 UNK        -0.5208 
     27 CA         23.4784    0.3167   -1.8346 C.3       3 UNK         0.0250 
     28 CB         23.6296    0.0542   -0.3273 C.3       3 UNK        -0.1990 
     29 N          24.7274    0.8822   -2.3503 N.am      3 UNK        -0.4232 
     30 C          24.8480    1.4863   -3.5416 C.2       2 UNK         0.4993 
     31 O          23.8999    1.6956   -4.2983 O.2       2 UNK        -0.5286 
     32 CA         26.2596    1.9164   -3.9843 C.3       2 UNK         0.0209 
     33 CB         26.4615    3.4146   -3.6999 C.3       2 UNK        -0.1931 
     34 N          27.3743    1.1607   -3.3977 N.am      2 UNK        -0.4546 
     35 C          27.5103   -0.1713   -3.4001 C.2       1 UNK         0.5154 
     36 O          26.6739   -0.9452   -3.8677 O.2       1 UNK        -0.5181 
     37 C          25.9977   -0.5804   -7.3217 C.2       5 UNK         0.5014 
     38 O          27.1242   -0.0920   -7.1988 O.2       5 UNK        -0.5248 
     39 N          24.9166    0.1348   -7.6613 N.am      6 UNK        -0.4434 
     40 CA         24.9141    1.5772   -7.9438 C.3       6 UNK         0.0363 
     41 CB         23.4751    2.0398   -8.2195 C.3       6 UNK        -0.1936 
     42 C          25.8476    1.9982   -9.0949 C.2       6 UNK         0.5081 
     43 O          26.3785    3.1079   -9.0668 O.2       6 UNK        -0.5248 
     44 N          26.0494    1.0993  -10.0688 N.am      7 UNK        -0.4718 
     45 CA         26.9852    1.2751  -11.1817 C.3       7 UNK         0.0273 
     46 CB         26.6428    0.2669  -12.2907 C.3       7 UNK        -0.1935 
     47 C          28.4621    1.1344  -10.7671 C.2       7 UNK         0.5018 
     48 O          29.3221    1.7181  -11.4278 O.2       7 UNK        -0.5186 
     49 N          28.7351    0.3649   -9.7027 N.am      8 UNK        -0.4240 
     50 CA         30.0765    0.1797   -9.1456 C.3       8 UNK         0.0235 
     51 CB         30.1921   -1.2070   -8.4905 C.3       8 UNK        -0.2000 
     52 C          30.4038    1.2799   -8.1294 C.2       8 UNK         0.4941 
     53 O          31.5169    1.8096   -8.1527 O.2       8 UNK        -0.5273 
     54 N          29.4380    1.5892   -7.2501 N.am      9 UNK        -0.4262 
     55 CA         29.4531    2.5880   -6.1724 C.3       9 UNK         0.0264 
     56 CB         29.5915    4.0187   -6.7264 C.3       9 UNK        -0.1955 
     57 C          30.4775    2.3040   -5.0585 C.2       9 UNK         0.5031 
     58 O          30.0901    2.1653   -3.8977 O.2       9 UNK        -0.5390 
     59 N          31.7512    2.2024   -5.4410 N.am      10 UNK        -0.4204 
     60 CA         32.8796    1.7855   -4.6087 C.3       10 UNK         0.0237 
     61 CB         33.7331    3.0167   -4.2595 C.3       10 UNK        -0.1985 
     62 C          33.7333    0.7020   -5.2948 C.2       10 UNK         0.4970 
     63 O          34.5304    0.0613   -4.6087 O.2       10 UNK        -0.4914 
     64 N          33.5555    0.5023   -6.6110 N.am      11 UNK        -0.4285 
     65 CA         34.2651   -0.4752   -7.4474 C.3       11 UNK         0.1007 
     66 C          35.7897   -0.1865   -7.6022 C.2       11 UNK         0.5703 
     67 N          36.5700   -1.1472   -8.0789 N.am      11 UNK        -0.7361 
     68 O          36.2684    0.9171   -7.3445 O.2       11 UNK        -0.4986 
     69 C69        33.9219   -1.9384   -7.0400 C.3       12 UNK        -0.0947 
     70 S70        33.7591   -3.0521   -8.4749 S.3       12 UNK        -0.2240 
     71 C71        33.4363   -4.6443   -7.6542 C.3       12 UNK         0.0194 
     72 H72        26.1892   -2.7717    0.3256 H         1 UNK         0.0906 
     73 H73        27.5814   -2.3503    1.3269 H         1 UNK         0.0906 
     74 H74        27.7586   -3.5165    0.0142 H         1 UNK         0.0906 
     75 H75        28.7279   -2.6481   -1.8011 H         1 UNK         0.3140 
     76 H76        29.3236    0.0455   -2.2542 H         1 UNK         0.1085 
     77 H77        29.9793   -0.6731   -4.5424 H         1 UNK         0.0836 
     78 H78        29.1000   -2.1631   -4.3720 H         1 UNK         0.0836 
     79 H79        31.6016   -4.5353   -2.8516 H         1 UNK         0.0731 
     80 H80        29.8861   -4.2241   -2.9204 H         1 UNK         0.0731 
     81 H81        32.9891   -4.1020   -5.0237 H         1 UNK         0.1312 
     82 H82        30.9485   -5.1795   -8.6334 H         1 UNK         0.1406 
     83 H83        28.7463   -4.6607   -4.9823 H         1 UNK         0.1631 
     84 H84        28.3586   -6.4152   -7.7027 H         1 UNK         0.0717 
     85 H85        28.5124   -4.9947   -8.7066 H         1 UNK         0.0717 
     86 H86        27.8339   -2.5429   -6.4874 H         1 UNK         0.0934 
     87 H87        27.5335   -2.7192   -8.2024 H         1 UNK         0.0934 
     88 H88        25.0755   -2.4399   -7.8316 H         1 UNK         0.0739 
     89 H89        25.7771   -1.8037   -4.9977 H         1 UNK         0.3093 
     90 H90        22.6816   -3.2229   -3.8468 H         1 UNK         0.0818 
     91 H91        24.4479   -4.9860   -3.8002 H         1 UNK         0.0819 
     92 H92        25.6481   -3.7970   -3.3113 H         1 UNK         0.0819 
     93 H93        24.3054   -4.1911   -2.2400 H         1 UNK         0.0819 
     94 H94        24.9124   -1.2993   -3.2576 H         1 UNK         0.3041 
     95 H95        22.6889    1.0586   -1.9727 H         1 UNK         0.0784 
     96 H96        22.6952   -0.3110    0.1011 H         1 UNK         0.0793 
     97 H97        24.3954   -0.6948   -0.1229 H         1 UNK         0.0793 
     98 H98        23.8979    0.9638    0.2105 H         1 UNK         0.0793 
     99 H99        25.5607    0.7368   -1.7923 H         1 UNK         0.3024 
    100 H100       26.3100    1.7537   -5.0610 H         1 UNK         0.1171 
    101 H101       26.4149    3.6279   -2.6312 H         1 UNK         0.0786 
    102 H102       27.4219    3.7750   -4.0670 H         1 UNK         0.0786 
    103 H103       25.6878    4.0117   -4.1849 H         1 UNK         0.0786 
    104 H104       28.1489    1.7103   -3.0431 H         1 UNK         0.2977 
    105 H105       24.0244   -0.3368   -7.7148 H         1 UNK         0.3127 
    106 H106       25.2630    2.0911   -7.0477 H         1 UNK         0.0770 
    107 H107       23.4412    3.1123   -8.4168 H         1 UNK         0.0814 
    108 H108       23.0456    1.5350   -9.0856 H         1 UNK         0.0814 
    109 H109       22.8284    1.8513   -7.3620 H         1 UNK         0.0814 
    110 H110       25.5501    0.2230  -10.0230 H         1 UNK         0.2983 
    111 H111       26.8546    2.2826  -11.5839 H         1 UNK         0.0947 
    112 H112       26.7451   -0.7635  -11.9478 H         1 UNK         0.0806 
    113 H113       27.3053    0.3915  -13.1486 H         1 UNK         0.0806 
    114 H114       25.6227    0.4030  -12.6503 H         1 UNK         0.0806 
    115 H115       27.9644   -0.0182   -9.1714 H         1 UNK         0.3000 
    116 H116       30.8134    0.2316   -9.9504 H         1 UNK         0.0850 
    117 H117       31.2116   -1.3895   -8.1526 H         1 UNK         0.0810 
    118 H118       29.9388   -2.0040   -9.1896 H         1 UNK         0.0810 
    119 H119       29.5473   -1.3042   -7.6178 H         1 UNK         0.0810 
    120 H120       28.5859    1.0314   -7.2897 H         1 UNK         0.3040 
    121 H121       28.4684    2.5163   -5.7166 H         1 UNK         0.0766 
    122 H122       29.5281    4.7544   -5.9236 H         1 UNK         0.0812 
    123 H123       28.7934    4.2426   -7.4347 H         1 UNK         0.0812 
    124 H124       30.5423    4.1752   -7.2363 H         1 UNK         0.0812 
    125 H125       31.9204    2.3122   -6.4377 H         1 UNK         0.3205 
    126 H126       32.5070    1.3448   -3.6812 H         1 UNK         0.0754 
    127 H127       34.5777    2.7413   -3.6265 H         1 UNK         0.0769 
    128 H128       33.1495    3.7599   -3.7159 H         1 UNK         0.0769 
    129 H129       34.1355    3.4939   -5.1540 H         1 UNK         0.0769 
    130 H130       32.8970    1.0772   -7.1242 H         1 UNK         0.2981 
    131 H131       33.8523   -0.2951   -8.4406 H         1 UNK         0.0541 
    132 H132       37.5543   -0.9702   -8.2035 H         1 UNK         0.3459 
    133 H133       36.1803   -2.0460   -8.3199 H         1 UNK         0.3459 
    134 H134       32.9633   -1.9560   -6.5205 H         1 UNK         0.0612 
    135 H135       34.6495   -2.3403   -6.3325 H         1 UNK         0.0612 
    136 H136       34.2580   -4.8726   -6.9735 H         1 UNK         0.0624 
    137 H137       33.4360   -5.4339   -8.4069 H         1 UNK         0.0624 
@<TRIPOS>BOND
     1    1    2 1    
     2    1   72 1    
     3    1   73 1    
     4    1   74 1    
     5    2    3 2    
     6    2    4 am   BACKBONE|DICT|INTERRES
     7    4    5 1    
     8    4   75 1    
     9    5    6 1    
    10    5   35 1    
    11    5   76 1    
    12    6    7 1    
    13    6   77 1    
    14    6   78 1    
    15    7    8 1    
    16    8    9 1    
    17    8   79 1    
    18    8   80 1    
    19    9   10 ar   
    20    9   14 ar   
    21   10   11 ar   
    22   10   81 1    
    23   11   12 ar   
    24   11   71 1    
    25   12   13 ar   
    26   12   82 1    
    27   13   14 ar   
    28   13   15 1    
    29   14   83 1    
    30   15   16 1    
    31   15   84 1    
    32   15   85 1    
    33   16   17 1    
    34   17   18 1    
    35   17   86 1    
    36   17   87 1    
    37   18   19 1    
    38   18   37 1    
    39   18   88 1    
    40   19   20 am   BACKBONE|DICT|INTERRES
    41   19   89 1    
    42   20   21 2    
    43   20   22 1    
    44   22   23 1    
    45   22   24 1    
    46   22   90 1    
    47   23   91 1    
    48   23   92 1    
    49   23   93 1    
    50   24   25 am   BACKBONE|DICT|INTERRES
    51   24   94 1    
    52   25   26 2    
    53   25   27 1    
    54   27   28 1    
    55   27   29 1    
    56   27   95 1    
    57   28   96 1    
    58   28   97 1    
    59   28   98 1    
    60   29   30 am   BACKBONE|DICT|INTERRES
    61   29   99 1    
    62   30   31 2    
    63   30   32 1    
    64   32   33 1    
    65   32   34 1    
    66   32  100 1    
    67   33  101 1    
    68   33  102 1    
    69   33  103 1    
    70   34   35 am   BACKBONE|DICT|INTERRES
    71   34  104 1    
    72   35   36 2    
    73   37   38 2    
    74   37   39 am   BACKBONE|DICT|INTERRES
    75   39   40 1    
    76   39  105 1    
    77   40   41 1    
    78   40   42 1    
    79   40  106 1    
    80   41  107 1    
    81   41  108 1    
    82   41  109 1    
    83   42   43 2    
    84   42   44 am   BACKBONE|DICT|INTERRES
    85   44   45 1    
    86   44  110 1    
    87   45   46 1    
    88   45   47 1    
    89   45  111 1    
    90   46  112 1    
    91   46  113 1    
    92   46  114 1    
    93   47   48 2    
    94   47   49 am   BACKBONE|DICT|INTERRES
    95   49   50 1    
    96   49  115 1    
    97   50   51 1    
    98   50   52 1    
    99   50  116 1    
   100   51  117 1    
   101   51  118 1    
   102   51  119 1    
   103   52   53 2    
   104   52   54 am   BACKBONE|DICT|INTERRES
   105   54   55 1    
   106   54  120 1    
   107   55   56 1    
   108   55   57 1    
   109   55  121 1    
   110   56  122 1    
   111   56  123 1    
   112   56  124 1    
   113   57   58 2    
   114   57   59 am   BACKBONE|DICT|INTERRES
   115   59   60 1    
   116   59  125 1    
   117   60   61 1    
   118   60   62 1    
   119   60  126 1    
   120   61  127 1    
   121   61  128 1    
   122   61  129 1    
   123   62   63 2    
   124   62   64 am   BACKBONE|DICT|INTERRES
   125   64   65 1    
   126   64  130 1    
   127   65   66 1    
   128   65   69 1    
   129   65  131 1    
   130   66   67 am   BACKBONE|DICT|INTERRES
   131   66   68 2    
   132   67  132 1    
   133   67  133 1    
   134   69   70 1    
   135   69  134 1    
   136   69  135 1    
   137   70   71 1    
   138   71  136 1    
   139   71  137 1    
@<TRIPOS>SUBSTRUCTURE
     1 UNK         1 GROUP             0       ****    0 ROOT    
