@<TRIPOS>MOLECULE
3R137
137   139    1
SMALL
USER_CHARGES


@<TRIPOS>ATOM
      1 CA         24.8364   -6.0176   -5.7863 C.3       0 UNK        -0.2020 
      2 C          24.9786   -5.4564   -4.3800 C.2       0 UNK         0.4855 
      3 O          23.9990   -4.9756   -3.8091 O.2       0 UNK        -0.5197 
      4 N          26.1971   -5.5113   -3.8281 N.am      1 UNK        -0.4892 
      5 CA         26.6089   -5.0099   -2.5107 C.3       1 UNK         0.0835 
      6 C6         28.1079   -5.3227   -2.2103 C.3       12 UNK        -0.0855 
      7 S7         29.2300   -5.2949   -3.6638 S.3       12 UNK        -0.2931 
      8 C8         30.7805   -4.6193   -2.9880 C.3       12 UNK         0.0378 
      9 C9         30.8389   -3.0999   -3.0708 C.ar      12 UNK        -0.0802 
     10 C10        31.4039   -2.4690   -4.1859 C.ar      12 UNK        -0.0944 
     11 C11        31.4984   -1.0734   -4.2400 C.ar      12 UNK        -0.0787 
     12 C12        31.0215   -0.3098   -3.1722 C.ar      12 UNK        -0.0862 
     13 C13        30.4315   -0.9267   -2.0669 C.ar      12 UNK        -0.0733 
     14 C14        30.3548   -2.3215   -2.0170 C.ar      12 UNK        -0.0832 
     15 C15        29.8739   -0.0976   -0.9209 C.3       12 UNK         0.0240 
     16 S16        28.0664   -0.2702   -0.8124 S.3       12 UNK        -0.2522 
     17 C17        27.4469    1.1636   -1.7510 C.3       12 UNK        -0.0967 
     18 CA         27.8075    1.2183   -3.2600 C.3       5 UNK         0.0660 
     19 N          27.5108   -0.0115   -4.0107 N.am      5 UNK        -0.4015 
     20 C          27.8335   -0.1962   -5.3029 C.2       4 UNK         0.4946 
     21 O          28.5158    0.5923   -5.9526 O.2       4 UNK        -0.5353 
     22 CA         27.2532   -1.4142   -6.0356 C.3       4 UNK         0.0277 
     23 CB         28.2039   -2.6134   -5.9504 C.3       4 UNK        -0.1981 
     24 N          25.9254   -1.7687   -5.5368 N.am      4 UNK        -0.4209 
     25 C          24.8143   -1.0732   -5.8230 C.2       3 UNK         0.4942 
     26 O          24.7934   -0.1142   -6.5931 O.2       3 UNK        -0.5208 
     27 CA         23.5198   -1.4723   -5.0949 C.3       3 UNK         0.0250 
     28 CB         22.7317   -2.5119   -5.9054 C.3       3 UNK        -0.1990 
     29 N          23.7731   -1.9737   -3.7423 N.am      3 UNK        -0.4232 
     30 C          24.2062   -1.1964   -2.7380 C.2       2 UNK         0.4993 
     31 O          24.3550    0.0224   -2.8398 O.2       2 UNK        -0.5286 
     32 CA         24.5927   -1.8960   -1.4216 C.3       2 UNK         0.0209 
     33 CB         23.3803   -1.9774   -0.4810 C.3       2 UNK        -0.1931 
     34 N          25.1608   -3.2378   -1.6053 N.am      2 UNK        -0.4546 
     35 C          26.2539   -3.5185   -2.3312 C.2       1 UNK         0.5154 
     36 O          26.9187   -2.6580   -2.9042 O.2       1 UNK        -0.5181 
     37 C          27.1357    2.4504   -3.8999 C.2       5 UNK         0.5014 
     38 O          27.7709    3.5008   -4.0043 O.2       5 UNK        -0.5248 
     39 N          25.8701    2.2954   -4.3159 N.am      6 UNK        -0.4434 
     40 CA         25.0973    3.3256   -5.0079 C.3       6 UNK         0.0363 
     41 CB         23.6098    2.9359   -5.0167 C.3       6 UNK        -0.1936 
     42 C          25.6060    3.5953   -6.4352 C.2       6 UNK         0.5081 
     43 O          25.7941    4.7573   -6.7970 O.2       6 UNK        -0.5248 
     44 N          25.7968    2.5301   -7.2265 N.am      7 UNK        -0.4718 
     45 CA         26.1743    2.6201   -8.6402 C.3       7 UNK         0.0273 
     46 CB         25.8246    1.2987   -9.3447 C.3       7 UNK        -0.1935 
     47 C          27.6530    2.9661   -8.8788 C.2       7 UNK         0.5018 
     48 O          27.9555    3.6116   -9.8820 O.2       7 UNK        -0.5186 
     49 N          28.5449    2.4801   -8.0018 N.am      8 UNK        -0.4240 
     50 CA         30.0151    2.5342   -8.0610 C.3       8 UNK         0.0235 
     51 CB         30.5286    3.9880   -8.0812 C.3       8 UNK        -0.2000 
     52 C          30.6514    1.6897   -9.1848 C.2       8 UNK         0.4941 
     53 O          31.8789    1.6301   -9.2608 O.2       8 UNK        -0.5273 
     54 N          29.8364    1.0290  -10.0199 N.am      9 UNK        -0.4262 
     55 CA         30.2387    0.3024  -11.2297 C.3       9 UNK         0.0264 
     56 CB         28.9789   -0.2087  -11.9479 C.3       9 UNK        -0.1955 
     57 C          31.2311   -0.8510  -11.0010 C.2       9 UNK         0.5031 
     58 O          32.0498   -1.1208  -11.8807 O.2       9 UNK        -0.5390 
     59 N          31.1534   -1.5003   -9.8318 N.am      10 UNK        -0.4204 
     60 CA         32.0717   -2.5669   -9.4221 C.3       10 UNK         0.0237 
     61 CB         31.3940   -3.4342   -8.3477 C.3       10 UNK        -0.1985 
     62 C          33.4307   -2.0441   -8.9164 C.2       10 UNK         0.4970 
     63 O          34.3729   -2.8335   -8.8384 O.2       10 UNK        -0.4914 
     64 N          33.5078   -0.7535   -8.5679 N.am      11 UNK        -0.4285 
     65 CA         34.7046   -0.0906   -8.0325 C.3       11 UNK         0.1007 
     66 C          35.3810    0.8263   -9.0852 C.2       11 UNK         0.5703 
     67 N          34.6297    1.5128   -9.9373 N.am      11 UNK        -0.7361 
     68 O          36.6061    0.9062   -9.1367 O.2       11 UNK        -0.4986 
     69 C69        34.3737    0.7041   -6.7431 C.3       12 UNK        -0.0947 
     70 S70        33.9261   -0.3822   -5.3477 S.3       12 UNK        -0.2240 
     71 C71        32.1106   -0.3800   -5.4468 C.3       12 UNK         0.0194 
     72 H72        24.8719   -5.2132   -6.5201 H         1 UNK         0.0906 
     73 H73        25.6315   -6.7261   -6.0183 H         1 UNK         0.0906 
     74 H74        23.8838   -6.5363   -5.8919 H         1 UNK         0.0906 
     75 H75        26.9658   -5.8805   -4.3720 H         1 UNK         0.3140 
     76 H76        26.0202   -5.5627   -1.7755 H         1 UNK         0.1085 
     77 H77        28.1760   -6.3285   -1.7928 H         1 UNK         0.0836 
     78 H78        28.4942   -4.6682   -1.4276 H         1 UNK         0.0836 
     79 H79        31.6139   -5.0446   -3.5492 H         1 UNK         0.0731 
     80 H80        30.9145   -4.9531   -1.9579 H         1 UNK         0.0731 
     81 H81        31.7810   -3.0638   -5.0062 H         1 UNK         0.1312 
     82 H82        31.1018    0.7676   -3.2099 H         1 UNK         0.1406 
     83 H83        29.9067   -2.7972   -1.1561 H         1 UNK         0.1631 
     84 H84        30.1453    0.9547   -1.0179 H         1 UNK         0.0717 
     85 H85        30.3163   -0.4443    0.0139 H         1 UNK         0.0717 
     86 H86        26.3640    1.1775   -1.6187 H         1 UNK         0.0934 
     87 H87        27.8105    2.0636   -1.2508 H         1 UNK         0.0934 
     88 H88        28.8810    1.3835   -3.3396 H         1 UNK         0.0739 
     89 H89        27.0595   -0.7683   -3.5058 H         1 UNK         0.3093 
     90 H90        27.1562   -1.1493   -7.0907 H         1 UNK         0.0818 
     91 H91        29.1455   -2.3886   -6.4493 H         1 UNK         0.0819 
     92 H92        28.4461   -2.8582   -4.9183 H         1 UNK         0.0819 
     93 H93        27.7839   -3.5011   -6.4228 H         1 UNK         0.0819 
     94 H94        25.8933   -2.4777   -4.8160 H         1 UNK         0.3041 
     95 H95        22.9018   -0.5755   -5.0110 H         1 UNK         0.0784 
     96 H96        22.4885   -2.1275   -6.8970 H         1 UNK         0.0793 
     97 H97        23.2962   -3.4328   -6.0440 H         1 UNK         0.0793 
     98 H98        21.7910   -2.7661   -5.4166 H         1 UNK         0.0793 
     99 H99        23.7054   -2.9775   -3.5978 H         1 UNK         0.3024 
    100 H100       25.3537   -1.2790   -0.9420 H         1 UNK         0.1171 
    101 H101       23.6601   -2.3771    0.4939 H         1 UNK         0.0786 
    102 H102       22.9511   -0.9886   -0.3122 H         1 UNK         0.0786 
    103 H103       22.5919   -2.6098   -0.8914 H         1 UNK         0.0786 
    104 H104       24.6324   -4.0048   -1.2141 H         1 UNK         0.2977 
    105 H105       25.4039    1.4137   -4.1314 H         1 UNK         0.3127 
    106 H106       25.1953    4.2542   -4.4412 H         1 UNK         0.0770 
    107 H107       23.4353    2.0047   -5.5561 H         1 UNK         0.0814 
    108 H108       23.0082    3.7083   -5.4977 H         1 UNK         0.0814 
    109 H109       23.2273    2.8103   -4.0036 H         1 UNK         0.0814 
    110 H110       25.5648    1.6041   -6.8733 H         1 UNK         0.2983 
    111 H111       25.5789    3.4120   -9.1007 H         1 UNK         0.0947 
    112 H112       26.0634    1.3440  -10.4083 H         1 UNK         0.0806 
    113 H113       24.7602    1.0774   -9.2626 H         1 UNK         0.0806 
    114 H114       26.3717    0.4562   -8.9202 H         1 UNK         0.0806 
    115 H115       28.1973    1.9214   -7.2240 H         1 UNK         0.3000 
    116 H116       30.3614    2.0861   -7.1291 H         1 UNK         0.0850 
    117 H117       31.6132    4.0191   -7.9690 H         1 UNK         0.0810 
    118 H118       30.1023    4.5696   -7.2638 H         1 UNK         0.0810 
    119 H119       30.2879    4.4936   -9.0165 H         1 UNK         0.0810 
    120 H120       28.8447    1.1440   -9.8771 H         1 UNK         0.3040 
    121 H121       30.7340    1.0230  -11.8839 H         1 UNK         0.0766 
    122 H122       28.3173    0.6130  -12.2234 H         1 UNK         0.0812 
    123 H123       28.4123   -0.9033  -11.3264 H         1 UNK         0.0812 
    124 H124       29.2394   -0.7332  -12.8685 H         1 UNK         0.0812 
    125 H125       30.4430   -1.2189   -9.1722 H         1 UNK         0.3205 
    126 H126       32.2718   -3.2031  -10.2872 H         1 UNK         0.0754 
    127 H127       32.0241   -4.2831   -8.0786 H         1 UNK         0.0769 
    128 H128       30.4443   -3.8374   -8.6999 H         1 UNK         0.0769 
    129 H129       31.2045   -2.8728   -7.4345 H         1 UNK         0.0769 
    130 H130       32.7199   -0.1422   -8.7440 H         1 UNK         0.2981 
    131 H131       35.4492   -0.8427   -7.7645 H         1 UNK         0.0541 
    132 H132       33.6177    1.5200   -9.8377 H         1 UNK         0.3459 
    133 H133       35.0723    2.1006  -10.6248 H         1 UNK         0.3459 
    134 H134       35.2405    1.2850   -6.4222 H         1 UNK         0.0612 
    135 H135       33.5760    1.4273   -6.9231 H         1 UNK         0.0612 
    136 H136       31.7884   -0.8749   -6.3617 H         1 UNK         0.0624 
    137 H137       31.7509    0.6480   -5.5120 H         1 UNK         0.0624 
@<TRIPOS>BOND
     1    1    2 1    
     2    1   72 1    
     3    1   73 1    
     4    1   74 1    
     5    2    3 2    
     6    2    4 am   BACKBONE|DICT|INTERRES
     7    4    5 1    
     8    4   75 1    
     9    5    6 1    
    10    5   35 1    
    11    5   76 1    
    12    6    7 1    
    13    6   77 1    
    14    6   78 1    
    15    7    8 1    
    16    8    9 1    
    17    8   79 1    
    18    8   80 1    
    19    9   10 ar   
    20    9   14 ar   
    21   10   11 ar   
    22   10   81 1    
    23   11   12 ar   
    24   11   71 1    
    25   12   13 ar   
    26   12   82 1    
    27   13   14 ar   
    28   13   15 1    
    29   14   83 1    
    30   15   16 1    
    31   15   84 1    
    32   15   85 1    
    33   16   17 1    
    34   17   18 1    
    35   17   86 1    
    36   17   87 1    
    37   18   19 1    
    38   18   37 1    
    39   18   88 1    
    40   19   20 am   BACKBONE|DICT|INTERRES
    41   19   89 1    
    42   20   21 2    
    43   20   22 1    
    44   22   23 1    
    45   22   24 1    
    46   22   90 1    
    47   23   91 1    
    48   23   92 1    
    49   23   93 1    
    50   24   25 am   BACKBONE|DICT|INTERRES
    51   24   94 1    
    52   25   26 2    
    53   25   27 1    
    54   27   28 1    
    55   27   29 1    
    56   27   95 1    
    57   28   96 1    
    58   28   97 1    
    59   28   98 1    
    60   29   30 am   BACKBONE|DICT|INTERRES
    61   29   99 1    
    62   30   31 2    
    63   30   32 1    
    64   32   33 1    
    65   32   34 1    
    66   32  100 1    
    67   33  101 1    
    68   33  102 1    
    69   33  103 1    
    70   34   35 am   BACKBONE|DICT|INTERRES
    71   34  104 1    
    72   35   36 2    
    73   37   38 2    
    74   37   39 am   BACKBONE|DICT|INTERRES
    75   39   40 1    
    76   39  105 1    
    77   40   41 1    
    78   40   42 1    
    79   40  106 1    
    80   41  107 1    
    81   41  108 1    
    82   41  109 1    
    83   42   43 2    
    84   42   44 am   BACKBONE|DICT|INTERRES
    85   44   45 1    
    86   44  110 1    
    87   45   46 1    
    88   45   47 1    
    89   45  111 1    
    90   46  112 1    
    91   46  113 1    
    92   46  114 1    
    93   47   48 2    
    94   47   49 am   BACKBONE|DICT|INTERRES
    95   49   50 1    
    96   49  115 1    
    97   50   51 1    
    98   50   52 1    
    99   50  116 1    
   100   51  117 1    
   101   51  118 1    
   102   51  119 1    
   103   52   53 2    
   104   52   54 am   BACKBONE|DICT|INTERRES
   105   54   55 1    
   106   54  120 1    
   107   55   56 1    
   108   55   57 1    
   109   55  121 1    
   110   56  122 1    
   111   56  123 1    
   112   56  124 1    
   113   57   58 2    
   114   57   59 am   BACKBONE|DICT|INTERRES
   115   59   60 1    
   116   59  125 1    
   117   60   61 1    
   118   60   62 1    
   119   60  126 1    
   120   61  127 1    
   121   61  128 1    
   122   61  129 1    
   123   62   63 2    
   124   62   64 am   BACKBONE|DICT|INTERRES
   125   64   65 1    
   126   64  130 1    
   127   65   66 1    
   128   65   69 1    
   129   65  131 1    
   130   66   67 am   BACKBONE|DICT|INTERRES
   131   66   68 2    
   132   67  132 1    
   133   67  133 1    
   134   69   70 1    
   135   69  134 1    
   136   69  135 1    
   137   70   71 1    
   138   71  136 1    
   139   71  137 1    
@<TRIPOS>SUBSTRUCTURE
     1 UNK         1 GROUP             0       ****    0 ROOT    
