@<TRIPOS>MOLECULE
3R137
137   139    1
SMALL
USER_CHARGES


@<TRIPOS>ATOM
      1 CA         27.2297   -6.5868    0.3016 C.3       0 UNK        -0.2020 
      2 C          26.6822   -5.7188   -0.8218 C.2       0 UNK         0.4855 
      3 O          25.5294   -5.8952   -1.2152 O.2       0 UNK        -0.5197 
      4 N          27.5062   -4.7910   -1.3301 N.am      1 UNK        -0.4892 
      5 CA         27.2095   -3.8352   -2.4071 C.3       1 UNK         0.0835 
      6 C6         26.9858   -4.4972   -3.7968 C.3       12 UNK        -0.0855 
      7 S7         28.3658   -5.5478   -4.3721 S.3       12 UNK        -0.2931 
      8 C8         29.0907   -4.5462   -5.7143 C.3       12 UNK         0.0378 
      9 C9         30.2083   -3.6574   -5.1912 C.ar      12 UNK        -0.0802 
     10 C10        31.5436   -4.0318   -5.3631 C.ar      12 UNK        -0.0944 
     11 C11        32.5723   -3.2448   -4.8402 C.ar      12 UNK        -0.0787 
     12 C12        32.2539   -2.0845   -4.1279 C.ar      12 UNK        -0.0862 
     13 C13        30.9237   -1.6932   -3.9454 C.ar      12 UNK        -0.0733 
     14 C14        29.9072   -2.4765   -4.5090 C.ar      12 UNK        -0.0832 
     15 C15        30.6514   -0.4468   -3.0995 C.3       12 UNK         0.0240 
     16 S16        28.9046   -0.1663   -2.6360 S.3       12 UNK        -0.2522 
     17 C17        28.4108    1.1281   -3.8198 C.3       12 UNK        -0.0967 
     18 CA         27.8348    0.5521   -5.1332 C.3       5 UNK         0.0660 
     19 N          26.5573   -0.1535   -4.9537 N.am      5 UNK        -0.4015 
     20 C          25.9550   -0.8496   -5.9342 C.2       4 UNK         0.4946 
     21 O          26.5085   -1.1026   -7.0038 O.2       4 UNK        -0.5353 
     22 CA         24.4801   -1.2598   -5.7651 C.3       4 UNK         0.0277 
     23 CB         24.2566   -2.7656   -5.9844 C.3       4 UNK        -0.1981 
     24 N          23.8879   -0.8351   -4.4956 N.am      4 UNK        -0.4209 
     25 C          23.4656    0.4137   -4.2446 C.2       3 UNK         0.4942 
     26 O          23.5337    1.3280   -5.0674 O.2       3 UNK        -0.5208 
     27 CA         22.9218    0.7117   -2.8340 C.3       3 UNK         0.0250 
     28 CB         21.3940    0.5485   -2.8029 C.3       3 UNK        -0.1990 
     29 N          23.5209   -0.1131   -1.7791 N.am      3 UNK        -0.4232 
     30 C          24.8246   -0.1247   -1.4676 C.2       2 UNK         0.4993 
     31 O          25.6553    0.5883   -2.0304 O.2       2 UNK        -0.5286 
     32 CA         25.3013   -1.1269   -0.3949 C.3       2 UNK         0.0209 
     33 CB         24.1559   -1.8536    0.3474 C.3       2 UNK        -0.1931 
     34 N          26.2463   -2.1089   -0.9477 N.am      2 UNK        -0.4546 
     35 C          26.0477   -2.8910   -2.0208 C.2       1 UNK         0.5154 
     36 O          25.0021   -2.8937   -2.6750 O.2       1 UNK        -0.5181 
     37 C          27.7445    1.6604   -6.2025 C.2       5 UNK         0.5014 
     38 O          28.7486    1.9250   -6.8631 O.2       5 UNK        -0.5248 
     39 N          26.5581    2.2614   -6.3871 N.am      6 UNK        -0.4434 
     40 CA         26.2825    3.2087   -7.4693 C.3       6 UNK         0.0363 
     41 CB         24.9313    3.8977   -7.2219 C.3       6 UNK        -0.1936 
     42 C          26.3060    2.5339   -8.8520 C.2       6 UNK         0.5081 
     43 O          26.8751    3.0933   -9.7884 O.2       6 UNK        -0.5248 
     44 N          25.7233    1.3295   -8.9457 N.am      7 UNK        -0.4718 
     45 CA         25.7113    0.5008  -10.1555 C.3       7 UNK         0.0273 
     46 CB         24.6783   -0.6274  -10.0005 C.3       7 UNK        -0.1935 
     47 C          27.1006   -0.0686  -10.4880 C.2       7 UNK         0.5018 
     48 O          27.4822   -0.0929  -11.6581 O.2       7 UNK        -0.5186 
     49 N          27.8442   -0.4760   -9.4499 N.am      8 UNK        -0.4240 
     50 CA         29.2331   -0.9364   -9.5360 C.3       8 UNK         0.0235 
     51 CB         29.5697   -1.7435   -8.2708 C.3       8 UNK        -0.2000 
     52 C          30.2576    0.1976   -9.7364 C.2       8 UNK         0.4941 
     53 O          31.4410   -0.1046   -9.8898 O.2       8 UNK        -0.5273 
     54 N          29.8108    1.4639   -9.6964 N.am      9 UNK        -0.4262 
     55 CA         30.5970    2.6981   -9.8209 C.3       9 UNK         0.0264 
     56 CB         31.1081    2.8669  -11.2671 C.3       9 UNK        -0.1955 
     57 C          31.7220    2.7898   -8.7718 C.2       9 UNK         0.5031 
     58 O          32.8703    3.0759   -9.1176 O.2       9 UNK        -0.5390 
     59 N          31.3747    2.4854   -7.5118 N.am      10 UNK        -0.4204 
     60 CA         32.2590    2.3887   -6.3423 C.3       10 UNK         0.0237 
     61 CB         32.7475    3.7890   -5.9163 C.3       10 UNK        -0.1985 
     62 C          33.4137    1.3809   -6.5307 C.2       10 UNK         0.4970 
     63 O          34.5097    1.5984   -6.0115 O.2       10 UNK        -0.4914 
     64 N          33.1408    0.3044   -7.2801 N.am      11 UNK        -0.4285 
     65 CA         34.0927   -0.7245   -7.7234 C.3       11 UNK         0.1007 
     66 C          35.0598   -0.2669   -8.8590 C.2       11 UNK         0.5703 
     67 N          34.8908    0.9064   -9.4591 N.am      11 UNK        -0.7361 
     68 O          35.9733   -1.0021   -9.2270 O.2       11 UNK        -0.4986 
     69 C69        34.8256   -1.4397   -6.5438 C.3       12 UNK        -0.0947 
     70 S70        34.6978   -3.2566   -6.6420 S.3       12 UNK        -0.2240 
     71 C71        34.0234   -3.6776   -5.0030 C.3       12 UNK         0.0194 
     72 H72        27.2016   -7.6367    0.0110 H         1 UNK         0.0906 
     73 H73        28.2597   -6.3327    0.5515 H         1 UNK         0.0906 
     74 H74        26.6235   -6.4654    1.1989 H         1 UNK         0.0906 
     75 H75        28.4407   -4.7211   -0.9510 H         1 UNK         0.3140 
     76 H76        28.0923   -3.2015   -2.4845 H         1 UNK         0.1085 
     77 H77        26.0855   -5.1143   -3.7826 H         1 UNK         0.0836 
     78 H78        26.8044   -3.7251   -4.5444 H         1 UNK         0.0836 
     79 H79        28.3254   -3.9463   -6.2083 H         1 UNK         0.0731 
     80 H80        29.4784   -5.2216   -6.4786 H         1 UNK         0.0731 
     81 H81        31.7849   -4.9441   -5.8916 H         1 UNK         0.1312 
     82 H82        33.0470   -1.4901   -3.6949 H         1 UNK         0.1406 
     83 H83        28.8707   -2.1996   -4.3969 H         1 UNK         0.1631 
     84 H84        31.0558    0.4265   -3.6113 H         1 UNK         0.0717 
     85 H85        31.2162   -0.5366   -2.1703 H         1 UNK         0.0717 
     86 H86        29.2729    1.7694   -4.0140 H         1 UNK         0.0934 
     87 H87        27.6758    1.7722   -3.3337 H         1 UNK         0.0934 
     88 H88        28.5525   -0.1711   -5.5197 H         1 UNK         0.0739 
     89 H89        26.0726    0.0129   -4.0783 H         1 UNK         0.3093 
     90 H90        23.9453   -0.7508   -6.5701 H         1 UNK         0.0818 
     91 H91        23.1939   -2.9923   -6.0695 H         1 UNK         0.0819 
     92 H92        24.7307   -3.1076   -6.9055 H         1 UNK         0.0819 
     93 H93        24.6529   -3.3674   -5.1707 H         1 UNK         0.0819 
     94 H94        23.8882   -1.5218   -3.7469 H         1 UNK         0.3041 
     95 H95        23.1589    1.7540   -2.6103 H         1 UNK         0.0784 
     96 H96        20.9197    1.1716   -3.5627 H         1 UNK         0.0793 
     97 H97        21.0935   -0.4827   -2.9931 H         1 UNK         0.0793 
     98 H98        20.9816    0.8474   -1.8389 H         1 UNK         0.0793 
     99 H99        22.9064   -0.7487   -1.2912 H         1 UNK         0.3024 
    100 H100       25.8525   -0.5366    0.3391 H         1 UNK         0.1171 
    101 H101       24.5504   -2.4849    1.1439 H         1 UNK         0.0786 
    102 H102       23.5735   -2.4951   -0.3152 H         1 UNK         0.0786 
    103 H103       23.4729   -1.1442    0.8167 H         1 UNK         0.0786 
    104 H104       27.1438   -2.1562   -0.4857 H         1 UNK         0.2977 
    105 H105       25.7759    2.0008   -5.8005 H         1 UNK         0.3127 
    106 H106       27.0624    3.9735   -7.4584 H         1 UNK         0.0770 
    107 H107       24.1083    3.1821   -7.1976 H         1 UNK         0.0814 
    108 H108       24.7125    4.6203   -8.0093 H         1 UNK         0.0814 
    109 H109       24.9302    4.4399   -6.2763 H         1 UNK         0.0814 
    110 H110       25.3089    0.9291   -8.1176 H         1 UNK         0.2983 
    111 H111       25.4041    1.1307  -10.9935 H         1 UNK         0.0947 
    112 H112       24.6250   -1.2313  -10.9074 H         1 UNK         0.0806 
    113 H113       23.6798   -0.2298   -9.8187 H         1 UNK         0.0806 
    114 H114       24.9272   -1.2995   -9.1787 H         1 UNK         0.0806 
    115 H115       27.4110   -0.5043   -8.5288 H         1 UNK         0.3000 
    116 H116       29.3192   -1.6023  -10.3971 H         1 UNK         0.0850 
    117 H117       30.5657   -2.1842   -8.3346 H         1 UNK         0.0810 
    118 H118       28.8640   -2.5609   -8.1263 H         1 UNK         0.0810 
    119 H119       29.5486   -1.1196   -7.3781 H         1 UNK         0.0810 
    120 H120       28.8239    1.6009   -9.5227 H         1 UNK         0.3040 
    121 H121       29.9125    3.5215   -9.6109 H         1 UNK         0.0766 
    122 H122       31.6063    3.8285  -11.3959 H         1 UNK         0.0812 
    123 H123       30.2877    2.8282  -11.9837 H         1 UNK         0.0812 
    124 H124       31.8253    2.0902  -11.5354 H         1 UNK         0.0812 
    125 H125       30.3925    2.2606   -7.3352 H         1 UNK         0.3205 
    126 H126       31.6445    1.9933   -5.5326 H         1 UNK         0.0754 
    127 H127       33.2968    3.7442   -4.9750 H         1 UNK         0.0769 
    128 H128       31.9110    4.4721   -5.7689 H         1 UNK         0.0769 
    129 H129       33.4122    4.2281   -6.6611 H         1 UNK         0.0769 
    130 H130       32.2355    0.2519   -7.7260 H         1 UNK         0.2981 
    131 H131       33.4472   -1.4536   -8.2143 H         1 UNK         0.0541 
    132 H132       34.1354    1.5319   -9.1989 H         1 UNK         0.3459 
    133 H133       35.5228    1.1717  -10.1968 H         1 UNK         0.3459 
    134 H134       34.4221   -1.1191   -5.5850 H         1 UNK         0.0612 
    135 H135       35.8820   -1.1687   -6.4998 H         1 UNK         0.0612 
    136 H136       34.6499   -3.2317   -4.2289 H         1 UNK         0.0624 
    137 H137       34.0955   -4.7573   -4.8645 H         1 UNK         0.0624 
@<TRIPOS>BOND
     1    1    2 1    
     2    1   72 1    
     3    1   73 1    
     4    1   74 1    
     5    2    3 2    
     6    2    4 am   BACKBONE|DICT|INTERRES
     7    4    5 1    
     8    4   75 1    
     9    5    6 1    
    10    5   35 1    
    11    5   76 1    
    12    6    7 1    
    13    6   77 1    
    14    6   78 1    
    15    7    8 1    
    16    8    9 1    
    17    8   79 1    
    18    8   80 1    
    19    9   10 ar   
    20    9   14 ar   
    21   10   11 ar   
    22   10   81 1    
    23   11   12 ar   
    24   11   71 1    
    25   12   13 ar   
    26   12   82 1    
    27   13   14 ar   
    28   13   15 1    
    29   14   83 1    
    30   15   16 1    
    31   15   84 1    
    32   15   85 1    
    33   16   17 1    
    34   17   18 1    
    35   17   86 1    
    36   17   87 1    
    37   18   19 1    
    38   18   37 1    
    39   18   88 1    
    40   19   20 am   BACKBONE|DICT|INTERRES
    41   19   89 1    
    42   20   21 2    
    43   20   22 1    
    44   22   23 1    
    45   22   24 1    
    46   22   90 1    
    47   23   91 1    
    48   23   92 1    
    49   23   93 1    
    50   24   25 am   BACKBONE|DICT|INTERRES
    51   24   94 1    
    52   25   26 2    
    53   25   27 1    
    54   27   28 1    
    55   27   29 1    
    56   27   95 1    
    57   28   96 1    
    58   28   97 1    
    59   28   98 1    
    60   29   30 am   BACKBONE|DICT|INTERRES
    61   29   99 1    
    62   30   31 2    
    63   30   32 1    
    64   32   33 1    
    65   32   34 1    
    66   32  100 1    
    67   33  101 1    
    68   33  102 1    
    69   33  103 1    
    70   34   35 am   BACKBONE|DICT|INTERRES
    71   34  104 1    
    72   35   36 2    
    73   37   38 2    
    74   37   39 am   BACKBONE|DICT|INTERRES
    75   39   40 1    
    76   39  105 1    
    77   40   41 1    
    78   40   42 1    
    79   40  106 1    
    80   41  107 1    
    81   41  108 1    
    82   41  109 1    
    83   42   43 2    
    84   42   44 am   BACKBONE|DICT|INTERRES
    85   44   45 1    
    86   44  110 1    
    87   45   46 1    
    88   45   47 1    
    89   45  111 1    
    90   46  112 1    
    91   46  113 1    
    92   46  114 1    
    93   47   48 2    
    94   47   49 am   BACKBONE|DICT|INTERRES
    95   49   50 1    
    96   49  115 1    
    97   50   51 1    
    98   50   52 1    
    99   50  116 1    
   100   51  117 1    
   101   51  118 1    
   102   51  119 1    
   103   52   53 2    
   104   52   54 am   BACKBONE|DICT|INTERRES
   105   54   55 1    
   106   54  120 1    
   107   55   56 1    
   108   55   57 1    
   109   55  121 1    
   110   56  122 1    
   111   56  123 1    
   112   56  124 1    
   113   57   58 2    
   114   57   59 am   BACKBONE|DICT|INTERRES
   115   59   60 1    
   116   59  125 1    
   117   60   61 1    
   118   60   62 1    
   119   60  126 1    
   120   61  127 1    
   121   61  128 1    
   122   61  129 1    
   123   62   63 2    
   124   62   64 am   BACKBONE|DICT|INTERRES
   125   64   65 1    
   126   64  130 1    
   127   65   66 1    
   128   65   69 1    
   129   65  131 1    
   130   66   67 am   BACKBONE|DICT|INTERRES
   131   66   68 2    
   132   67  132 1    
   133   67  133 1    
   134   69   70 1    
   135   69  134 1    
   136   69  135 1    
   137   70   71 1    
   138   71  136 1    
   139   71  137 1    
@<TRIPOS>SUBSTRUCTURE
     1 UNK         1 GROUP             0       ****    0 ROOT    
