@<TRIPOS>MOLECULE
3R137
137   139    1
SMALL
USER_CHARGES


@<TRIPOS>ATOM
      1 CA         27.4686   -5.8743    2.7979 C.3       0 UNK        -0.2020 
      2 C          27.6765   -4.3794    2.6052 C.2       0 UNK         0.4855 
      3 O          28.2619   -3.7269    3.4702 O.2       0 UNK        -0.5197 
      4 N          27.1967   -3.8333    1.4832 N.am      1 UNK        -0.4892 
      5 CA         27.2958   -2.4127    1.1360 C.3       1 UNK         0.0835 
      6 C6         28.7183   -1.9578    0.7020 C.3       12 UNK        -0.0855 
      7 S7         29.4952   -2.9916   -0.5916 S.3       12 UNK        -0.2931 
      8 C8         29.4434   -1.8728   -2.0244 C.3       12 UNK         0.0378 
      9 C9         29.9753   -2.5595   -3.2727 C.ar      12 UNK        -0.0802 
     10 C10        31.2397   -2.2393   -3.7739 C.ar      12 UNK        -0.0944 
     11 C11        31.7300   -2.8736   -4.9193 C.ar      12 UNK        -0.0787 
     12 C12        30.9462   -3.8383   -5.5622 C.ar      12 UNK        -0.0862 
     13 C13        29.6857   -4.1793   -5.0609 C.ar      12 UNK        -0.0733 
     14 C14        29.2037   -3.5271   -3.9217 C.ar      12 UNK        -0.0832 
     15 C15        28.8775   -5.2984   -5.7081 C.3       12 UNK         0.0240 
     16 S16        27.9781   -4.7665   -7.2001 S.3       12 UNK        -0.2522 
     17 C17        26.6609   -3.7206   -6.4899 C.3       12 UNK        -0.0967 
     18 CA         26.4121   -2.4061   -7.2689 C.3       5 UNK         0.0660 
     19 N          25.2815   -1.6602   -6.7118 N.am      5 UNK        -0.4015 
     20 C          24.6305   -0.6757   -7.3480 C.2       4 UNK         0.4946 
     21 O          24.8776   -0.3255   -8.5004 O.2       4 UNK        -0.5353 
     22 CA         23.5439    0.0726   -6.5564 C.3       4 UNK         0.0277 
     23 CB         22.2026   -0.6729   -6.6411 C.3       4 UNK        -0.1981 
     24 N          23.9031    0.2828   -5.1521 N.am      4 UNK        -0.4209 
     25 C          24.9317    1.0376   -4.7395 C.2       3 UNK         0.4942 
     26 O          25.6474    1.6890   -5.4984 O.2       3 UNK        -0.5208 
     27 CA         25.2490    1.0262   -3.2341 C.3       3 UNK         0.0250 
     28 CB         24.4833    2.1479   -2.5153 C.3       3 UNK        -0.1990 
     29 N          24.9800   -0.2543   -2.5695 N.am      3 UNK        -0.4232 
     30 C          25.5093   -1.4356   -2.9156 C.2       2 UNK         0.4993 
     31 O          26.2737   -1.5896   -3.8712 O.2       2 UNK        -0.5286 
     32 CA         25.1245   -2.6418   -2.0423 C.3       2 UNK         0.0209 
     33 CB         25.0145   -3.9360   -2.8691 C.3       2 UNK        -0.1931 
     34 N          26.0922   -2.8386   -0.9612 N.am      2 UNK        -0.4546 
     35 C          26.2076   -2.0456    0.1148 C.2       1 UNK         0.5154 
     36 O          25.4672   -1.0859    0.3355 O.2       1 UNK        -0.5181 
     37 C          27.6595   -1.5052   -7.3521 C.2       5 UNK         0.5014 
     38 O          28.3123   -1.4753   -8.3965 O.2       5 UNK        -0.5248 
     39 N          27.9283   -0.7416   -6.2818 N.am      6 UNK        -0.4434 
     40 CA         29.0190    0.2352   -6.2240 C.3       6 UNK         0.0363 
     41 CB         29.0694    0.8819   -4.8308 C.3       6 UNK        -0.1936 
     42 C          28.9264    1.3179   -7.3136 C.2       6 UNK         0.5081 
     43 O          29.9463    1.6500   -7.9195 O.2       6 UNK        -0.5248 
     44 N          27.7053    1.8207   -7.5475 N.am      7 UNK        -0.4718 
     45 CA         27.3780    2.7971   -8.5869 C.3       7 UNK         0.0273 
     46 CB         26.0039    3.4167   -8.2866 C.3       7 UNK        -0.1935 
     47 C          27.4012    2.2117  -10.0091 C.2       7 UNK         0.5018 
     48 O          27.7772    2.9291  -10.9364 O.2       7 UNK        -0.5186 
     49 N          26.9944    0.9422  -10.1692 N.am      8 UNK        -0.4240 
     50 CA         27.0549    0.2110  -11.4414 C.3       8 UNK         0.0235 
     51 CB         26.2252   -1.0796  -11.3503 C.3       8 UNK        -0.2000 
     52 C          28.4970   -0.1029  -11.8739 C.2       8 UNK         0.4941 
     53 O          28.7812   -0.0984  -13.0731 O.2       8 UNK        -0.5273 
     54 N          29.3725   -0.3542  -10.8923 N.am      9 UNK        -0.4262 
     55 CA         30.8229   -0.4329  -11.0435 C.3       9 UNK         0.0264 
     56 CB         31.3708   -1.3991   -9.9721 C.3       9 UNK        -0.1955 
     57 C          31.4255    0.9881  -10.9856 C.2       9 UNK         0.5031 
     58 O          30.9997    1.8635  -11.7416 O.2       9 UNK        -0.5390 
     59 N          32.4066    1.2032  -10.1040 N.am      10 UNK        -0.4204 
     60 CA         33.0168    2.5015   -9.8130 C.3       10 UNK         0.0237 
     61 CB         34.0239    2.8888  -10.9181 C.3       10 UNK        -0.1985 
     62 C          33.6474    2.4585   -8.4130 C.2       10 UNK         0.4970 
     63 O          34.7749    2.9227   -8.2320 O.2       10 UNK        -0.4914 
     64 N          32.9364    1.8450   -7.4601 N.am      11 UNK        -0.4285 
     65 CA         33.4378    1.5787   -6.1048 C.3       11 UNK         0.1007 
     66 C          33.1896    2.7761   -5.1507 C.2       11 UNK         0.5703 
     67 N          34.0212    2.9357   -4.1302 N.am      11 UNK        -0.7361 
     68 O          32.2368    3.5388   -5.3023 O.2       11 UNK        -0.4986 
     69 C69        32.8549    0.2666   -5.5221 C.3       12 UNK        -0.0947 
     70 S70        33.1035   -1.1691   -6.6228 S.3       12 UNK        -0.2240 
     71 C71        33.1231   -2.5474   -5.4380 C.3       12 UNK         0.0194 
     72 H72        26.8878   -6.0593    3.7012 H         1 UNK         0.0906 
     73 H73        26.9420   -6.3261    1.9575 H         1 UNK         0.0906 
     74 H74        28.4306   -6.3754    2.9028 H         1 UNK         0.0906 
     75 H75        26.6795   -4.4067    0.8312 H         1 UNK         0.3140 
     76 H76        27.0433   -1.8479    2.0369 H         1 UNK         0.1085 
     77 H77        29.3785   -1.9867    1.5701 H         1 UNK         0.0836 
     78 H78        28.7084   -0.9115    0.3899 H         1 UNK         0.0836 
     79 H79        28.4201   -1.5414   -2.1989 H         1 UNK         0.0731 
     80 H80        30.0244   -0.9765   -1.8018 H         1 UNK         0.0731 
     81 H81        31.8467   -1.5014   -3.2682 H         1 UNK         0.1312 
     82 H82        31.3261   -4.3410   -6.4412 H         1 UNK         0.1406 
     83 H83        28.2359   -3.7852   -3.5180 H         1 UNK         0.1631 
     84 H84        28.1700   -5.7243   -4.9947 H         1 UNK         0.0717 
     85 H85        29.5505   -6.1121   -5.9826 H         1 UNK         0.0717 
     86 H86        25.7459   -4.3147   -6.4706 H         1 UNK         0.0934 
     87 H87        26.8910   -3.5019   -5.4496 H         1 UNK         0.0934 
     88 H88        26.1462   -2.6808   -8.2921 H         1 UNK         0.0739 
     89 H89        25.0825   -1.8204   -5.7337 H         1 UNK         0.3093 
     90 H90        23.4190    1.0543   -7.0187 H         1 UNK         0.0818 
     91 H91        21.4040   -0.1091   -6.1586 H         1 UNK         0.0819 
     92 H92        21.9069   -0.8237   -7.6805 H         1 UNK         0.0819 
     93 H93        22.2526   -1.6559   -6.1710 H         1 UNK         0.0819 
     94 H94        23.3579   -0.2062   -4.4573 H         1 UNK         0.3041 
     95 H95        26.3168    1.2229   -3.1257 H         1 UNK         0.0784 
     96 H96        24.6868    3.1161   -2.9754 H         1 UNK         0.0793 
     97 H97        23.4047    1.9896   -2.5514 H         1 UNK         0.0793 
     98 H98        24.7778    2.2214   -1.4681 H         1 UNK         0.0793 
     99 H99        24.4181   -0.2142   -1.7296 H         1 UNK         0.3024 
    100 H100       24.1431   -2.4475   -1.6030 H         1 UNK         0.1171 
    101 H101       24.3253   -3.8091   -3.7051 H         1 UNK         0.0786 
    102 H102       24.6360   -4.7593   -2.2630 H         1 UNK         0.0786 
    103 H103       25.9741   -4.2436   -3.2825 H         1 UNK         0.0786 
    104 H104       26.7865   -3.5584   -1.1011 H         1 UNK         0.2977 
    105 H105       27.3567   -0.8526   -5.4501 H         1 UNK         0.3127 
    106 H106       29.9424   -0.3220   -6.3898 H         1 UNK         0.0770 
    107 H107       28.1515    1.4219   -4.6042 H         1 UNK         0.0814 
    108 H108       29.8852    1.6025   -4.7613 H         1 UNK         0.0814 
    109 H109       29.2230    0.1379   -4.0520 H         1 UNK         0.0814 
    110 H110       26.9430    1.5394   -6.9359 H         1 UNK         0.2983 
    111 H111       28.1271    3.5911   -8.5478 H         1 UNK         0.0947 
    112 H112       25.7400    4.1664   -9.0337 H         1 UNK         0.0806 
    113 H113       25.9959    3.9101   -7.3144 H         1 UNK         0.0806 
    114 H114       25.2151    2.6632   -8.2846 H         1 UNK         0.0806 
    115 H115       26.6184    0.4408   -9.3716 H         1 UNK         0.3000 
    116 H116       26.6115    0.8439  -12.2131 H         1 UNK         0.0850 
    117 H117       26.2594   -1.6330  -12.2896 H         1 UNK         0.0810 
    118 H118       25.1776   -0.8632  -11.1413 H         1 UNK         0.0810 
    119 H119       26.5947   -1.7421  -10.5673 H         1 UNK         0.0810 
    120 H120       29.0178   -0.4080   -9.9417 H         1 UNK         0.3040 
    121 H121       31.0629   -0.8457  -12.0253 H         1 UNK         0.0766 
    122 H122       30.9160   -2.3851  -10.0702 H         1 UNK         0.0812 
    123 H123       31.1567   -1.0473   -8.9616 H         1 UNK         0.0812 
    124 H124       32.4485   -1.5391  -10.0654 H         1 UNK         0.0812 
    125 H125       32.7032    0.4376   -9.5135 H         1 UNK         0.3205 
    126 H126       32.2298    3.2579   -9.7760 H         1 UNK         0.0754 
    127 H127       34.4714    3.8631  -10.7177 H         1 UNK         0.0769 
    128 H128       33.5431    2.9543  -11.8940 H         1 UNK         0.0769 
    129 H129       34.8347    2.1633  -10.9927 H         1 UNK         0.0769 
    130 H130       31.9669    1.6026   -7.6405 H         1 UNK         0.2981 
    131 H131       34.5192    1.4391   -6.1681 H         1 UNK         0.0541 
    132 H132       34.8016    2.3133   -3.9890 H         1 UNK         0.3459 
    133 H133       33.8695    3.7006   -3.4914 H         1 UNK         0.3459 
    134 H134       31.7916    0.3696   -5.3218 H         1 UNK         0.0612 
    135 H135       33.3246    0.0524   -4.5608 H         1 UNK         0.0612 
    136 H136       33.5460   -3.4227   -5.9332 H         1 UNK         0.0624 
    137 H137       33.7955   -2.3156   -4.6107 H         1 UNK         0.0624 
@<TRIPOS>BOND
     1    1    2 1    
     2    1   72 1    
     3    1   73 1    
     4    1   74 1    
     5    2    3 2    
     6    2    4 am   BACKBONE|DICT|INTERRES
     7    4    5 1    
     8    4   75 1    
     9    5    6 1    
    10    5   35 1    
    11    5   76 1    
    12    6    7 1    
    13    6   77 1    
    14    6   78 1    
    15    7    8 1    
    16    8    9 1    
    17    8   79 1    
    18    8   80 1    
    19    9   10 ar   
    20    9   14 ar   
    21   10   11 ar   
    22   10   81 1    
    23   11   12 ar   
    24   11   71 1    
    25   12   13 ar   
    26   12   82 1    
    27   13   14 ar   
    28   13   15 1    
    29   14   83 1    
    30   15   16 1    
    31   15   84 1    
    32   15   85 1    
    33   16   17 1    
    34   17   18 1    
    35   17   86 1    
    36   17   87 1    
    37   18   19 1    
    38   18   37 1    
    39   18   88 1    
    40   19   20 am   BACKBONE|DICT|INTERRES
    41   19   89 1    
    42   20   21 2    
    43   20   22 1    
    44   22   23 1    
    45   22   24 1    
    46   22   90 1    
    47   23   91 1    
    48   23   92 1    
    49   23   93 1    
    50   24   25 am   BACKBONE|DICT|INTERRES
    51   24   94 1    
    52   25   26 2    
    53   25   27 1    
    54   27   28 1    
    55   27   29 1    
    56   27   95 1    
    57   28   96 1    
    58   28   97 1    
    59   28   98 1    
    60   29   30 am   BACKBONE|DICT|INTERRES
    61   29   99 1    
    62   30   31 2    
    63   30   32 1    
    64   32   33 1    
    65   32   34 1    
    66   32  100 1    
    67   33  101 1    
    68   33  102 1    
    69   33  103 1    
    70   34   35 am   BACKBONE|DICT|INTERRES
    71   34  104 1    
    72   35   36 2    
    73   37   38 2    
    74   37   39 am   BACKBONE|DICT|INTERRES
    75   39   40 1    
    76   39  105 1    
    77   40   41 1    
    78   40   42 1    
    79   40  106 1    
    80   41  107 1    
    81   41  108 1    
    82   41  109 1    
    83   42   43 2    
    84   42   44 am   BACKBONE|DICT|INTERRES
    85   44   45 1    
    86   44  110 1    
    87   45   46 1    
    88   45   47 1    
    89   45  111 1    
    90   46  112 1    
    91   46  113 1    
    92   46  114 1    
    93   47   48 2    
    94   47   49 am   BACKBONE|DICT|INTERRES
    95   49   50 1    
    96   49  115 1    
    97   50   51 1    
    98   50   52 1    
    99   50  116 1    
   100   51  117 1    
   101   51  118 1    
   102   51  119 1    
   103   52   53 2    
   104   52   54 am   BACKBONE|DICT|INTERRES
   105   54   55 1    
   106   54  120 1    
   107   55   56 1    
   108   55   57 1    
   109   55  121 1    
   110   56  122 1    
   111   56  123 1    
   112   56  124 1    
   113   57   58 2    
   114   57   59 am   BACKBONE|DICT|INTERRES
   115   59   60 1    
   116   59  125 1    
   117   60   61 1    
   118   60   62 1    
   119   60  126 1    
   120   61  127 1    
   121   61  128 1    
   122   61  129 1    
   123   62   63 2    
   124   62   64 am   BACKBONE|DICT|INTERRES
   125   64   65 1    
   126   64  130 1    
   127   65   66 1    
   128   65   69 1    
   129   65  131 1    
   130   66   67 am   BACKBONE|DICT|INTERRES
   131   66   68 2    
   132   67  132 1    
   133   67  133 1    
   134   69   70 1    
   135   69  134 1    
   136   69  135 1    
   137   70   71 1    
   138   71  136 1    
   139   71  137 1    
@<TRIPOS>SUBSTRUCTURE
     1 UNK         1 GROUP             0       ****    0 ROOT    
