@<TRIPOS>MOLECULE
3R137
137   139    1
SMALL
USER_CHARGES


@<TRIPOS>ATOM
      1 CA         26.1916   -0.9196    4.4507 C.3       0 UNK        -0.2020 
      2 C          26.3612   -0.7708    2.9459 C.2       0 UNK         0.4855 
      3 O          25.6485    0.0190    2.3250 O.2       0 UNK        -0.5197 
      4 N          27.3044   -1.5165    2.3562 N.am      1 UNK        -0.4892 
      5 CA         27.5545   -1.5530    0.9115 C.3       1 UNK         0.0835 
      6 C6         28.9870   -2.0629    0.6096 C.3       12 UNK        -0.0855 
      7 S7         29.5765   -1.5733   -1.0493 S.3       12 UNK        -0.2931 
      8 C8         29.7976   -3.2120   -1.8207 C.3       12 UNK         0.0378 
      9 C9         30.1180   -3.1590   -3.3128 C.ar      12 UNK        -0.0802 
     10 C10        31.0046   -2.2108   -3.8374 C.ar      12 UNK        -0.0944 
     11 C11        31.3220   -2.2047   -5.1991 C.ar      12 UNK        -0.0787 
     12 C12        30.7624   -3.1747   -6.0372 C.ar      12 UNK        -0.0862 
     13 C13        29.8794   -4.1321   -5.5294 C.ar      12 UNK        -0.0733 
     14 C14        29.5594   -4.1141   -4.1687 C.ar      12 UNK        -0.0832 
     15 C15        29.3175   -5.2250   -6.4326 C.3       12 UNK         0.0240 
     16 S16        28.2730   -4.5861   -7.7818 S.3       12 UNK        -0.2522 
     17 C17        26.8307   -3.9227   -6.8787 C.3       12 UNK        -0.0967 
     18 CA         26.2316   -2.6704   -7.5683 C.3       5 UNK         0.0660 
     19 N          24.9551   -2.2810   -6.9762 N.am      5 UNK        -0.4015 
     20 C          23.9334   -1.7445   -7.6569 C.2       4 UNK         0.4946 
     21 O          23.8977   -1.6517   -8.8846 O.2       4 UNK        -0.5353 
     22 CA         22.7468   -1.2044   -6.8353 C.3       4 UNK         0.0277 
     23 CB         21.6436   -2.2690   -6.7219 C.3       4 UNK        -0.1981 
     24 N          23.1114   -0.7403   -5.4928 N.am      4 UNK        -0.4209 
     25 C          23.9538    0.2701   -5.2329 C.2       3 UNK         0.4942 
     26 O          24.5126    0.9415   -6.0990 O.2       3 UNK        -0.5208 
     27 CA         24.2742    0.5445   -3.7546 C.3       3 UNK         0.0250 
     28 CB         23.2169    1.4774   -3.1430 C.3       3 UNK        -0.1990 
     29 N          24.4234   -0.6492   -2.9095 N.am      3 UNK        -0.4232 
     30 C          25.1862   -1.7203   -3.1739 C.2       2 UNK         0.4993 
     31 O          25.7966   -1.8925   -4.2307 O.2       2 UNK        -0.5286 
     32 CA         25.3608   -2.7194   -2.0296 C.3       2 UNK         0.0209 
     33 CB         25.8378   -4.1029   -2.5145 C.3       2 UNK        -0.1931 
     34 N          26.3433   -2.1289   -1.1297 N.am      2 UNK        -0.4546 
     35 C          26.4680   -2.3730    0.1771 C.2       1 UNK         0.5154 
     36 O          25.7843   -3.2005    0.7869 O.2       1 UNK        -0.5181 
     37 C          27.1881   -1.4678   -7.5211 C.2       5 UNK         0.5014 
     38 O          27.6933   -1.0540   -8.5650 O.2       5 UNK        -0.5248 
     39 N          27.4114   -0.9275   -6.3145 N.am      6 UNK        -0.4434 
     40 CA         28.4343    0.0729   -6.0102 C.3       6 UNK         0.0363 
     41 CB         28.4208    0.3860   -4.5070 C.3       6 UNK        -0.1936 
     42 C          28.3467    1.3605   -6.8418 C.2       6 UNK         0.5081 
     43 O          29.3870    1.8585   -7.2693 O.2       6 UNK        -0.5248 
     44 N          27.1279    1.8566   -7.0997 N.am      7 UNK        -0.4718 
     45 CA         26.8960    3.0553   -7.9136 C.3       7 UNK         0.0273 
     46 CB         25.4385    3.5145   -7.7504 C.3       7 UNK        -0.1935 
     47 C          27.2341    2.8694   -9.4042 C.2       7 UNK         0.5018 
     48 O          27.5397    3.8576  -10.0729 O.2       7 UNK        -0.5186 
     49 N          27.1715    1.6254   -9.8976 N.am      8 UNK        -0.4240 
     50 CA         27.5201    1.2643  -11.2710 C.3       8 UNK         0.0235 
     51 CB         26.6014    0.1273  -11.7501 C.3       8 UNK        -0.2000 
     52 C          28.9955    0.8543  -11.3778 C.2       8 UNK         0.4941 
     53 O          29.6817    1.2947  -12.3006 O.2       8 UNK        -0.5273 
     54 N          29.4504    0.0091  -10.4434 N.am      9 UNK        -0.4262 
     55 CA         30.7949   -0.5651  -10.4162 C.3       9 UNK         0.0264 
     56 CB         30.7955   -1.7801   -9.4786 C.3       9 UNK        -0.1955 
     57 C          31.8893    0.4274   -9.9968 C.2       9 UNK         0.5031 
     58 O          33.0207    0.2920  -10.4659 O.2       9 UNK        -0.5390 
     59 N          31.5579    1.3751   -9.1062 N.am      10 UNK        -0.4204 
     60 CA         32.4071    2.4187   -8.5113 C.3       10 UNK         0.0237 
     61 CB         32.9667    3.3740   -9.5838 C.3       10 UNK        -0.1985 
     62 C          33.5262    1.9028   -7.5860 C.2       10 UNK         0.4970 
     63 O          33.7228    2.4807   -6.5168 O.2       10 UNK        -0.4914 
     64 N          34.2367    0.8483   -8.0065 N.am      11 UNK        -0.4285 
     65 CA         35.3896    0.2287   -7.3277 C.3       11 UNK         0.1007 
     66 C          36.6446    1.1516   -7.2178 C.2       11 UNK         0.5703 
     67 N          36.7610    2.2062   -8.0170 N.am      11 UNK        -0.7361 
     68 O          37.5477    0.8945   -6.4246 O.2       11 UNK        -0.4986 
     69 C69        35.0096   -0.4469   -5.9771 C.3       12 UNK        -0.0947 
     70 S70        33.8849   -1.8701   -6.1779 S.3       12 UNK        -0.2240 
     71 C71        32.2695   -1.1500   -5.7556 C.3       12 UNK         0.0194 
     72 H72        26.3477    0.0401    4.9428 H         1 UNK         0.0906 
     73 H73        25.1831   -1.2613    4.6820 H         1 UNK         0.0906 
     74 H74        26.8970   -1.6352    4.8727 H         1 UNK         0.0906 
     75 H75        27.8324   -2.1757    2.9107 H         1 UNK         0.3140 
     76 H76        27.4822   -0.5234    0.5516 H         1 UNK         0.1085 
     77 H77        29.6900   -1.6304    1.3238 H         1 UNK         0.0836 
     78 H78        29.0581   -3.1439    0.7464 H         1 UNK         0.0836 
     79 H79        28.8908   -3.7955   -1.6544 H         1 UNK         0.0731 
     80 H80        30.6048   -3.7384   -1.3097 H         1 UNK         0.0731 
     81 H81        31.4529   -1.4763   -3.1828 H         1 UNK         0.1312 
     82 H82        31.0283   -3.2013   -7.0833 H         1 UNK         0.1406 
     83 H83        28.8952   -4.8679   -3.7690 H         1 UNK         0.1631 
     84 H84        28.7418   -5.9517   -5.8572 H         1 UNK         0.0717 
     85 H85        30.1501   -5.7767   -6.8709 H         1 UNK         0.0717 
     86 H86        26.0805   -4.7137   -6.8346 H         1 UNK         0.0934 
     87 H87        27.0995   -3.7097   -5.8425 H         1 UNK         0.0934 
     88 H88        26.0719   -2.9209   -8.6196 H         1 UNK         0.0739 
     89 H89        24.9305   -2.2573   -5.9619 H         1 UNK         0.3093 
     90 H90        22.3422   -0.3478   -7.3788 H         1 UNK         0.0818 
     91 H91        20.7571   -1.8722   -6.2268 H         1 UNK         0.0819 
     92 H92        21.3326   -2.6148   -7.7089 H         1 UNK         0.0819 
     93 H93        21.9803   -3.1426   -6.1622 H         1 UNK         0.0819 
     94 H94        22.7088   -1.2375   -4.7118 H         1 UNK         0.3041 
     95 H95        25.2303    1.0687   -3.7304 H         1 UNK         0.0784 
     96 H96        23.0986    2.3810   -3.7432 H         1 UNK         0.0793 
     97 H97        22.2397    0.9967   -3.0814 H         1 UNK         0.0793 
     98 H98        23.4993    1.7949   -2.1390 H         1 UNK         0.0793 
     99 H99        23.9834   -0.5988   -2.0014 H         1 UNK         0.3024 
    100 H100       24.4037   -2.8345   -1.5154 H         1 UNK         0.1171 
    101 H101       25.1201   -4.5399   -3.2097 H         1 UNK         0.0786 
    102 H102       26.7944   -4.0396   -3.0317 H         1 UNK         0.0786 
    103 H103       25.9517   -4.7991   -1.6837 H         1 UNK         0.0786 
    104 H104       26.9682   -1.4564   -1.5563 H         1 UNK         0.2977 
    105 H105       26.9057   -1.3080   -5.5158 H         1 UNK         0.3127 
    106 H106       29.3932   -0.3895   -6.2459 H         1 UNK         0.0770 
    107 H107       27.4908    0.8646   -4.2036 H         1 UNK         0.0814 
    108 H108       29.2376    1.0585   -4.2420 H         1 UNK         0.0814 
    109 H109       28.5419   -0.5196   -3.9124 H         1 UNK         0.0814 
    110 H110       26.3045    1.3901   -6.7259 H         1 UNK         0.2983 
    111 H111       27.5450    3.8470   -7.5326 H         1 UNK         0.0947 
    112 H112       25.2557    4.4389   -8.2999 H         1 UNK         0.0806 
    113 H113       25.1965    3.7053   -6.7047 H         1 UNK         0.0806 
    114 H114       24.7375    2.7678   -8.1256 H         1 UNK         0.0806 
    115 H115       26.9693    0.8627   -9.2621 H         1 UNK         0.3000 
    116 H116       27.3612    2.1210  -11.9300 H         1 UNK         0.0850 
    117 H117       26.8397   -0.1608  -12.7748 H         1 UNK         0.0810 
    118 H118       25.5550    0.4324  -11.7342 H         1 UNK         0.0810 
    119 H119       26.6963   -0.7648  -11.1295 H         1 UNK         0.0810 
    120 H120       28.7990   -0.3327   -9.7361 H         1 UNK         0.3040 
    121 H121       31.0371   -0.9124  -11.4230 H         1 UNK         0.0766 
    122 H122       31.7914   -2.2176   -9.3931 H         1 UNK         0.0812 
    123 H123       30.1249   -2.5607   -9.8389 H         1 UNK         0.0812 
    124 H124       30.4675   -1.4994   -8.4782 H         1 UNK         0.0812 
    125 H125       30.6125    1.3663   -8.7315 H         1 UNK         0.3205 
    126 H126       31.7383    3.0057   -7.8801 H         1 UNK         0.0754 
    127 H127       33.5079    4.2013   -9.1228 H         1 UNK         0.0769 
    128 H128       32.1651    3.8056  -10.1833 H         1 UNK         0.0769 
    129 H129       33.6580    2.8727  -10.2616 H         1 UNK         0.0769 
    130 H130       34.0002    0.4722   -8.9221 H         1 UNK         0.2981 
    131 H131       35.7151   -0.5671   -7.9983 H         1 UNK         0.0541 
    132 H132       37.5801    2.7891   -7.9476 H         1 UNK         0.3459 
    133 H133       36.0414    2.4217   -8.6875 H         1 UNK         0.3459 
    134 H134       34.5915    0.2771   -5.2771 H         1 UNK         0.0612 
    135 H135       35.8996   -0.8447   -5.4872 H         1 UNK         0.0612 
    136 H136       31.8393   -0.6918   -6.6464 H         1 UNK         0.0624 
    137 H137       32.3979   -0.3450   -5.0308 H         1 UNK         0.0624 
@<TRIPOS>BOND
     1    1    2 1    
     2    1   72 1    
     3    1   73 1    
     4    1   74 1    
     5    2    3 2    
     6    2    4 am   BACKBONE|DICT|INTERRES
     7    4    5 1    
     8    4   75 1    
     9    5    6 1    
    10    5   35 1    
    11    5   76 1    
    12    6    7 1    
    13    6   77 1    
    14    6   78 1    
    15    7    8 1    
    16    8    9 1    
    17    8   79 1    
    18    8   80 1    
    19    9   10 ar   
    20    9   14 ar   
    21   10   11 ar   
    22   10   81 1    
    23   11   12 ar   
    24   11   71 1    
    25   12   13 ar   
    26   12   82 1    
    27   13   14 ar   
    28   13   15 1    
    29   14   83 1    
    30   15   16 1    
    31   15   84 1    
    32   15   85 1    
    33   16   17 1    
    34   17   18 1    
    35   17   86 1    
    36   17   87 1    
    37   18   19 1    
    38   18   37 1    
    39   18   88 1    
    40   19   20 am   BACKBONE|DICT|INTERRES
    41   19   89 1    
    42   20   21 2    
    43   20   22 1    
    44   22   23 1    
    45   22   24 1    
    46   22   90 1    
    47   23   91 1    
    48   23   92 1    
    49   23   93 1    
    50   24   25 am   BACKBONE|DICT|INTERRES
    51   24   94 1    
    52   25   26 2    
    53   25   27 1    
    54   27   28 1    
    55   27   29 1    
    56   27   95 1    
    57   28   96 1    
    58   28   97 1    
    59   28   98 1    
    60   29   30 am   BACKBONE|DICT|INTERRES
    61   29   99 1    
    62   30   31 2    
    63   30   32 1    
    64   32   33 1    
    65   32   34 1    
    66   32  100 1    
    67   33  101 1    
    68   33  102 1    
    69   33  103 1    
    70   34   35 am   BACKBONE|DICT|INTERRES
    71   34  104 1    
    72   35   36 2    
    73   37   38 2    
    74   37   39 am   BACKBONE|DICT|INTERRES
    75   39   40 1    
    76   39  105 1    
    77   40   41 1    
    78   40   42 1    
    79   40  106 1    
    80   41  107 1    
    81   41  108 1    
    82   41  109 1    
    83   42   43 2    
    84   42   44 am   BACKBONE|DICT|INTERRES
    85   44   45 1    
    86   44  110 1    
    87   45   46 1    
    88   45   47 1    
    89   45  111 1    
    90   46  112 1    
    91   46  113 1    
    92   46  114 1    
    93   47   48 2    
    94   47   49 am   BACKBONE|DICT|INTERRES
    95   49   50 1    
    96   49  115 1    
    97   50   51 1    
    98   50   52 1    
    99   50  116 1    
   100   51  117 1    
   101   51  118 1    
   102   51  119 1    
   103   52   53 2    
   104   52   54 am   BACKBONE|DICT|INTERRES
   105   54   55 1    
   106   54  120 1    
   107   55   56 1    
   108   55   57 1    
   109   55  121 1    
   110   56  122 1    
   111   56  123 1    
   112   56  124 1    
   113   57   58 2    
   114   57   59 am   BACKBONE|DICT|INTERRES
   115   59   60 1    
   116   59  125 1    
   117   60   61 1    
   118   60   62 1    
   119   60  126 1    
   120   61  127 1    
   121   61  128 1    
   122   61  129 1    
   123   62   63 2    
   124   62   64 am   BACKBONE|DICT|INTERRES
   125   64   65 1    
   126   64  130 1    
   127   65   66 1    
   128   65   69 1    
   129   65  131 1    
   130   66   67 am   BACKBONE|DICT|INTERRES
   131   66   68 2    
   132   67  132 1    
   133   67  133 1    
   134   69   70 1    
   135   69  134 1    
   136   69  135 1    
   137   70   71 1    
   138   71  136 1    
   139   71  137 1    
@<TRIPOS>SUBSTRUCTURE
     1 UNK         1 GROUP             0       ****    0 ROOT    
