@<TRIPOS>MOLECULE
3R137
137   139    1
SMALL
USER_CHARGES


@<TRIPOS>ATOM
      1 CA         27.1143   -5.8224   -3.8830 C.3       0 UNK        -0.2020 
      2 C          26.7666   -4.8475   -2.7693 C.2       0 UNK         0.4855 
      3 O          25.7957   -4.1015   -2.8918 O.2       0 UNK        -0.5197 
      4 N          27.5606   -4.8532   -1.6903 N.am      1 UNK        -0.4892 
      5 CA         27.3722   -4.1268   -0.4242 C.3       1 UNK         0.0835 
      6 C6         28.5020   -4.4113    0.6157 C.3       12 UNK        -0.0855 
      7 S7         30.0822   -5.0699   -0.0400 S.3       12 UNK        -0.2931 
      8 C8         31.0902   -3.5704   -0.3158 C.3       12 UNK         0.0378 
      9 C9         30.9174   -2.9346   -1.6958 C.ar      12 UNK        -0.0802 
     10 C10        31.0400   -1.5486   -1.8314 C.ar      12 UNK        -0.0944 
     11 C11        30.9191   -0.9312   -3.0801 C.ar      12 UNK        -0.0787 
     12 C12        30.6559   -1.7233   -4.2036 C.ar      12 UNK        -0.0862 
     13 C13        30.5665   -3.1168   -4.0998 C.ar      12 UNK        -0.0733 
     14 C14        30.7037   -3.7100   -2.8417 C.ar      12 UNK        -0.0832 
     15 C15        30.3761   -4.0265   -5.3162 C.3       12 UNK         0.0240 
     16 S16        29.7746   -3.2165   -6.8371 S.3       12 UNK        -0.2522 
     17 C17        28.0905   -2.7415   -6.3404 C.3       12 UNK        -0.0967 
     18 CA         27.4432   -1.6951   -7.2780 C.3       5 UNK         0.0660 
     19 N          25.9908   -1.7092   -7.1050 N.am      5 UNK        -0.4015 
     20 C          25.0991   -1.0193   -7.8264 C.2       4 UNK         0.4946 
     21 O          25.3927   -0.3392   -8.8077 O.2       4 UNK        -0.5353 
     22 CA         23.6417   -1.0413   -7.3232 C.3       4 UNK         0.0277 
     23 CB         22.8281   -2.0995   -8.0841 C.3       4 UNK        -0.1981 
     24 N          23.5110   -1.2677   -5.8746 N.am      4 UNK        -0.4209 
     25 C          24.0672   -0.5016   -4.9229 C.2       3 UNK         0.4942 
     26 O          24.7427    0.4952   -5.1854 O.2       3 UNK        -0.5208 
     27 CA         23.9040   -0.9401   -3.4537 C.3       3 UNK         0.0250 
     28 CB         23.0471   -2.2087   -3.2638 C.3       3 UNK        -0.1990 
     29 N          25.2281   -1.1609   -2.8644 N.am      3 UNK        -0.4232 
     30 C          25.9877   -0.1989   -2.3169 C.2       2 UNK         0.4993 
     31 O          25.5862    0.9487   -2.1157 O.2       2 UNK        -0.5286 
     32 CA         27.4440   -0.5628   -1.9528 C.3       2 UNK         0.0209 
     33 CB         28.0325    0.3739   -0.8732 C.3       2 UNK        -0.1931 
     34 N          27.6378   -1.9720   -1.5905 N.am      2 UNK        -0.4546 
     35 C          27.0885   -2.6152   -0.5513 C.2       1 UNK         0.5154 
     36 O          26.3621   -2.0766    0.2856 O.2       1 UNK        -0.5181 
     37 C          28.0570   -0.2852   -7.0979 C.2       5 UNK         0.5014 
     38 O          28.9935    0.0582   -7.8223 O.2       5 UNK        -0.5248 
     39 N          27.5058    0.5236   -6.1771 N.am      6 UNK        -0.4434 
     40 CA         27.9201    1.9143   -5.9728 C.3       6 UNK         0.0363 
     41 CB         27.5402    2.3896   -4.5635 C.3       6 UNK        -0.1936 
     42 C          27.3295    2.8523   -7.0330 C.2       6 UNK         0.5081 
     43 O          28.0129    3.7875   -7.4462 O.2       6 UNK        -0.5248 
     44 N          26.0992    2.5732   -7.4897 N.am      7 UNK        -0.4718 
     45 CA         25.4484    3.2932   -8.5917 C.3       7 UNK         0.0273 
     46 CB         23.9685    2.8882   -8.6825 C.3       7 UNK        -0.1935 
     47 C          26.1665    3.0727   -9.9356 C.2       7 UNK         0.5018 
     48 O          26.3236    4.0210  -10.7049 O.2       7 UNK        -0.5186 
     49 N          26.6326    1.8372  -10.1650 N.am      8 UNK        -0.4240 
     50 CA         27.5004    1.4531  -11.2811 C.3       8 UNK         0.0235 
     51 CB         27.4896   -0.0797  -11.4078 C.3       8 UNK        -0.2000 
     52 C          28.9501    1.9589  -11.1398 C.2       8 UNK         0.4941 
     53 O          29.6811    1.9396  -12.1308 O.2       8 UNK        -0.5273 
     54 N          29.3416    2.3743   -9.9242 N.am      9 UNK        -0.4262 
     55 CA         30.6824    2.7970   -9.5019 C.3       9 UNK         0.0264 
     56 CB         31.0802    4.1248  -10.1805 C.3       9 UNK        -0.1955 
     57 C          31.7327    1.6831   -9.6805 C.2       9 UNK         0.5031 
     58 O          32.8480    1.9479  -10.1335 O.2       9 UNK        -0.5390 
     59 N          31.3489    0.4516   -9.3225 N.am      10 UNK        -0.4204 
     60 CA         32.1450   -0.7667   -9.4851 C.3       10 UNK         0.0237 
     61 CB         31.2338   -1.8640  -10.0650 C.3       10 UNK        -0.1985 
     62 C          32.8334   -1.2068   -8.1775 C.2       10 UNK         0.4970 
     63 O          33.3099   -2.3406   -8.1026 O.2       10 UNK        -0.4914 
     64 N          32.8767   -0.3163   -7.1772 N.am      11 UNK        -0.4285 
     65 CA         33.5108   -0.5145   -5.8651 C.3       11 UNK         0.1007 
     66 C          35.0261   -0.8473   -5.9530 C.2       11 UNK         0.5703 
     67 N          35.5270   -1.7013   -5.0704 N.am      11 UNK        -0.7361 
     68 O          35.7565   -0.3032   -6.7798 O.2       11 UNK        -0.4986 
     69 C69        33.2882    0.7073   -4.9318 C.3       12 UNK        -0.0947 
     70 S70        31.5469    1.2412   -4.8043 S.3       12 UNK        -0.2240 
     71 C71        31.0598    0.5901   -3.1683 C.3       12 UNK         0.0194 
     72 H72        27.1354   -5.3132   -4.8435 H         1 UNK         0.0906 
     73 H73        26.3608   -6.6076   -3.9356 H         1 UNK         0.0906 
     74 H74        28.0843   -6.2936   -3.7257 H         1 UNK         0.0906 
     75 H75        28.3603   -5.4717   -1.6755 H         1 UNK         0.3140 
     76 H76        26.4484   -4.5351   -0.0078 H         1 UNK         0.1085 
     77 H77        28.7121   -3.5473    1.2502 H         1 UNK         0.0836 
     78 H78        28.1360   -5.1679    1.3118 H         1 UNK         0.0836 
     79 H79        30.8782   -2.8458    0.4718 H         1 UNK         0.0731 
     80 H80        32.1405   -3.8425   -0.2038 H         1 UNK         0.0731 
     81 H81        31.2374   -0.9440   -0.9566 H         1 UNK         0.1312 
     82 H82        30.5536   -1.2522   -5.1696 H         1 UNK         0.1406 
     83 H83        30.6586   -4.7871   -2.7594 H         1 UNK         0.1631 
     84 H84        29.6930   -4.8390   -5.0675 H         1 UNK         0.0717 
     85 H85        31.3363   -4.4914   -5.5433 H         1 UNK         0.0717 
     86 H86        27.5025   -3.6591   -6.3621 H         1 UNK         0.0934 
     87 H87        28.0803   -2.4000   -5.3037 H         1 UNK         0.0934 
     88 H88        27.6323   -1.9953   -8.3111 H         1 UNK         0.0739 
     89 H89        25.6387   -2.2478   -6.3283 H         1 UNK         0.3093 
     90 H90        23.2124   -0.0609   -7.5377 H         1 UNK         0.0818 
     91 H91        22.8909   -1.9385   -9.1615 H         1 UNK         0.0819 
     92 H92        23.1885   -3.1094   -7.8842 H         1 UNK         0.0819 
     93 H93        21.7725   -2.0588   -7.8149 H         1 UNK         0.0819 
     94 H94        22.9686   -2.0699   -5.5869 H         1 UNK         0.3041 
     95 H95        23.4036   -0.1219   -2.9317 H         1 UNK         0.0784 
     96 H96        22.0304   -2.0602   -3.6302 H         1 UNK         0.0793 
     97 H97        23.4680   -3.0749   -3.7759 H         1 UNK         0.0793 
     98 H98        22.9665   -2.4661   -2.2073 H         1 UNK         0.0793 
     99 H99        25.6008   -2.1037   -2.9346 H         1 UNK         0.3024 
    100 H100       28.0189   -0.4146   -2.8672 H         1 UNK         0.1171 
    101 H101       28.0621    1.4060   -1.2240 H         1 UNK         0.0786 
    102 H102       29.0509    0.0948   -0.6087 H         1 UNK         0.0786 
    103 H103       27.4375    0.3621    0.0403 H         1 UNK         0.0786 
    104 H104       28.2319   -2.5131   -2.2043 H         1 UNK         0.2977 
    105 H105       26.6666    0.2317   -5.6867 H         1 UNK         0.3127 
    106 H106       29.0065    1.9704   -6.0600 H         1 UNK         0.0770 
    107 H107       28.0175    1.7822   -3.7980 H         1 UNK         0.0814 
    108 H108       27.8630    3.4187   -4.4013 H         1 UNK         0.0814 
    109 H109       26.4630    2.3586   -4.3979 H         1 UNK         0.0814 
    110 H110       25.5974    1.7943   -7.0840 H         1 UNK         0.2983 
    111 H111       25.4947    4.3606   -8.3643 H         1 UNK         0.0947 
    112 H112       23.8488    1.8415   -8.9610 H         1 UNK         0.0806 
    113 H113       23.4514    3.4830   -9.4365 H         1 UNK         0.0806 
    114 H114       23.4527    3.0466   -7.7353 H         1 UNK         0.0806 
    115 H115       26.3612    1.0942   -9.5235 H         1 UNK         0.3000 
    116 H116       27.0901    1.8806  -12.1983 H         1 UNK         0.0850 
    117 H117       28.0908   -0.4081  -12.2567 H         1 UNK         0.0810 
    118 H118       26.4787   -0.4588  -11.5596 H         1 UNK         0.0810 
    119 H119       27.8956   -0.5587  -10.5156 H         1 UNK         0.0810 
    120 H120       28.6515    2.3509   -9.1855 H         1 UNK         0.3040 
    121 H121       30.6173    2.9827   -8.4287 H         1 UNK         0.0766 
    122 H122       31.2124    4.0070  -11.2564 H         1 UNK         0.0812 
    123 H123       32.0201    4.5032   -9.7771 H         1 UNK         0.0812 
    124 H124       30.3248    4.8934  -10.0166 H         1 UNK         0.0812 
    125 H125       30.4334    0.3318   -8.8853 H         1 UNK         0.3205 
    126 H126       32.9457   -0.5915  -10.2064 H         1 UNK         0.0754 
    127 H127       31.7700   -2.8050  -10.1937 H         1 UNK         0.0769 
    128 H128       30.8501   -1.5760  -11.0440 H         1 UNK         0.0769 
    129 H129       30.3770   -2.0570   -9.4206 H         1 UNK         0.0769 
    130 H130       32.4621    0.5898   -7.3284 H         1 UNK         0.2981 
    131 H131       33.0219   -1.3804   -5.4193 H         1 UNK         0.0541 
    132 H132       36.5113   -1.9160   -5.1012 H         1 UNK         0.3459 
    133 H133       34.9399   -2.1409   -4.3788 H         1 UNK         0.3459 
    134 H134       33.8605    1.5645   -5.2918 H         1 UNK         0.0612 
    135 H135       33.6670    0.4926   -3.9310 H         1 UNK         0.0612 
    136 H136       30.1051    1.0390   -2.8981 H         1 UNK         0.0624 
    137 H137       31.7813    0.9419   -2.4294 H         1 UNK         0.0624 
@<TRIPOS>BOND
     1    1    2 1    
     2    1   72 1    
     3    1   73 1    
     4    1   74 1    
     5    2    3 2    
     6    2    4 am   BACKBONE|DICT|INTERRES
     7    4    5 1    
     8    4   75 1    
     9    5    6 1    
    10    5   35 1    
    11    5   76 1    
    12    6    7 1    
    13    6   77 1    
    14    6   78 1    
    15    7    8 1    
    16    8    9 1    
    17    8   79 1    
    18    8   80 1    
    19    9   10 ar   
    20    9   14 ar   
    21   10   11 ar   
    22   10   81 1    
    23   11   12 ar   
    24   11   71 1    
    25   12   13 ar   
    26   12   82 1    
    27   13   14 ar   
    28   13   15 1    
    29   14   83 1    
    30   15   16 1    
    31   15   84 1    
    32   15   85 1    
    33   16   17 1    
    34   17   18 1    
    35   17   86 1    
    36   17   87 1    
    37   18   19 1    
    38   18   37 1    
    39   18   88 1    
    40   19   20 am   BACKBONE|DICT|INTERRES
    41   19   89 1    
    42   20   21 2    
    43   20   22 1    
    44   22   23 1    
    45   22   24 1    
    46   22   90 1    
    47   23   91 1    
    48   23   92 1    
    49   23   93 1    
    50   24   25 am   BACKBONE|DICT|INTERRES
    51   24   94 1    
    52   25   26 2    
    53   25   27 1    
    54   27   28 1    
    55   27   29 1    
    56   27   95 1    
    57   28   96 1    
    58   28   97 1    
    59   28   98 1    
    60   29   30 am   BACKBONE|DICT|INTERRES
    61   29   99 1    
    62   30   31 2    
    63   30   32 1    
    64   32   33 1    
    65   32   34 1    
    66   32  100 1    
    67   33  101 1    
    68   33  102 1    
    69   33  103 1    
    70   34   35 am   BACKBONE|DICT|INTERRES
    71   34  104 1    
    72   35   36 2    
    73   37   38 2    
    74   37   39 am   BACKBONE|DICT|INTERRES
    75   39   40 1    
    76   39  105 1    
    77   40   41 1    
    78   40   42 1    
    79   40  106 1    
    80   41  107 1    
    81   41  108 1    
    82   41  109 1    
    83   42   43 2    
    84   42   44 am   BACKBONE|DICT|INTERRES
    85   44   45 1    
    86   44  110 1    
    87   45   46 1    
    88   45   47 1    
    89   45  111 1    
    90   46  112 1    
    91   46  113 1    
    92   46  114 1    
    93   47   48 2    
    94   47   49 am   BACKBONE|DICT|INTERRES
    95   49   50 1    
    96   49  115 1    
    97   50   51 1    
    98   50   52 1    
    99   50  116 1    
   100   51  117 1    
   101   51  118 1    
   102   51  119 1    
   103   52   53 2    
   104   52   54 am   BACKBONE|DICT|INTERRES
   105   54   55 1    
   106   54  120 1    
   107   55   56 1    
   108   55   57 1    
   109   55  121 1    
   110   56  122 1    
   111   56  123 1    
   112   56  124 1    
   113   57   58 2    
   114   57   59 am   BACKBONE|DICT|INTERRES
   115   59   60 1    
   116   59  125 1    
   117   60   61 1    
   118   60   62 1    
   119   60  126 1    
   120   61  127 1    
   121   61  128 1    
   122   61  129 1    
   123   62   63 2    
   124   62   64 am   BACKBONE|DICT|INTERRES
   125   64   65 1    
   126   64  130 1    
   127   65   66 1    
   128   65   69 1    
   129   65  131 1    
   130   66   67 am   BACKBONE|DICT|INTERRES
   131   66   68 2    
   132   67  132 1    
   133   67  133 1    
   134   69   70 1    
   135   69  134 1    
   136   69  135 1    
   137   70   71 1    
   138   71  136 1    
   139   71  137 1    
@<TRIPOS>SUBSTRUCTURE
     1 UNK         1 GROUP             0       ****    0 ROOT    
