@<TRIPOS>MOLECULE
3R137
137   139    1
SMALL
USER_CHARGES


@<TRIPOS>ATOM
      1 CA         23.3540   -5.4988   -2.5825 C.3       0 UNK        -0.2020 
      2 C          24.1578   -4.5882   -1.6674 C.2       0 UNK         0.4855 
      3 O          23.6155   -3.6199   -1.1333 O.2       0 UNK        -0.5197 
      4 N          25.4501   -4.8903   -1.4929 N.am      1 UNK        -0.4892 
      5 CA         26.4346   -4.1412   -0.7027 C.3       1 UNK         0.0835 
      6 C6         27.8147   -4.8593   -0.6469 C.3       12 UNK        -0.0855 
      7 S7         28.2985   -5.7380   -2.1806 S.3       12 UNK        -0.2931 
      8 C8         30.0978   -5.4769   -2.2354 C.3       12 UNK         0.0378 
      9 C9         30.4666   -4.2006   -2.9762 C.ar      12 UNK        -0.0802 
     10 C10        30.4509   -4.1788   -4.3742 C.ar      12 UNK        -0.0944 
     11 C11        30.8247   -3.0261   -5.0688 C.ar      12 UNK        -0.0787 
     12 C12        31.2526   -1.9036   -4.3562 C.ar      12 UNK        -0.0862 
     13 C13        31.2211   -1.8909   -2.9576 C.ar      12 UNK        -0.0733 
     14 C14        30.8358   -3.0494   -2.2736 C.ar      12 UNK        -0.0832 
     15 C15        31.5919   -0.6339   -2.1726 C.3       12 UNK         0.0240 
     16 S16        30.8344    0.9039   -2.8135 S.3       12 UNK        -0.2522 
     17 C17        29.0658    0.4714   -2.9382 C.3       12 UNK        -0.0967 
     18 CA         28.6260    0.2587   -4.4127 C.3       5 UNK         0.0660 
     19 N          27.6828   -0.8576   -4.5440 N.am      5 UNK        -0.4015 
     20 C          27.2865   -1.4045   -5.7024 C.2       4 UNK         0.4946 
     21 O          27.6937   -1.0399   -6.8026 O.2       4 UNK        -0.5353 
     22 CA         26.2154   -2.5025   -5.6261 C.3       4 UNK         0.0277 
     23 CB         26.8420   -3.8686   -5.3042 C.3       4 UNK        -0.1981 
     24 N          25.1963   -2.1640   -4.6310 N.am      4 UNK        -0.4209 
     25 C          24.2004   -1.2913   -4.8501 C.2       3 UNK         0.4942 
     26 O          23.9604   -0.7920   -5.9490 O.2       3 UNK        -0.5208 
     27 CA         23.3448   -0.8721   -3.6409 C.3       3 UNK         0.0250 
     28 CB         22.0707   -1.7257   -3.5478 C.3       3 UNK        -0.1990 
     29 N          24.0802   -0.9292   -2.3737 N.am      3 UNK        -0.4232 
     30 C          25.0596   -0.0720   -2.0448 C.2       2 UNK         0.4993 
     31 O          25.4031    0.8704   -2.7566 O.2       2 UNK        -0.5286 
     32 CA         25.8273   -0.3329   -0.7362 C.3       2 UNK         0.0209 
     33 CB         25.1669    0.4155    0.4320 C.3       2 UNK        -0.1931 
     34 N          25.9521   -1.7542   -0.3988 N.am      2 UNK        -0.4546 
     35 C          26.5392   -2.6768   -1.1742 C.2       1 UNK         0.5154 
     36 O          27.0766   -2.4102   -2.2495 O.2       1 UNK        -0.5181 
     37 C          28.1384    1.5638   -5.0813 C.2       5 UNK         0.5014 
     38 O          28.9588    2.3589   -5.5391 O.2       5 UNK        -0.5248 
     39 N          26.8163    1.7519   -5.1661 N.am      6 UNK        -0.4434 
     40 CA         26.1770    2.8394   -5.9057 C.3       6 UNK         0.0363 
     41 CB         24.7025    2.9253   -5.4777 C.3       6 UNK        -0.1936 
     42 C          26.2821    2.7091   -7.4400 C.2       6 UNK         0.5081 
     43 O          26.0504    3.7044   -8.1281 O.2       6 UNK        -0.5248 
     44 N          26.5921    1.5137   -7.9628 N.am      7 UNK        -0.4718 
     45 CA         26.6339    1.2259   -9.3968 C.3       7 UNK         0.0273 
     46 CB         25.9944   -0.1502   -9.6459 C.3       7 UNK        -0.1935 
     47 C          28.0740    1.2390   -9.9286 C.2       7 UNK         0.5018 
     48 O          29.0035    0.8468   -9.2170 O.2       7 UNK        -0.5186 
     49 N          28.2155    1.6559  -11.1970 N.am      8 UNK        -0.4240 
     50 CA         29.4281    1.6070  -12.0294 C.3       8 UNK         0.0235 
     51 CB         29.6503    0.1648  -12.5310 C.3       8 UNK        -0.2000 
     52 C          30.6829    2.2179  -11.3714 C.2       8 UNK         0.4941 
     53 O          31.7739    1.6554  -11.4873 O.2       8 UNK        -0.5273 
     54 N          30.4891    3.3457  -10.6684 N.am      9 UNK        -0.4262 
     55 CA         31.4894    4.0786   -9.8797 C.3       9 UNK         0.0264 
     56 CB         32.5071    4.7735  -10.8102 C.3       9 UNK        -0.1955 
     57 C          32.1600    3.1981   -8.8037 C.2       9 UNK         0.5031 
     58 O          33.3837    3.2316   -8.6605 O.2       9 UNK        -0.5390 
     59 N          31.3341    2.4162   -8.0910 N.am      10 UNK        -0.4204 
     60 CA         31.7014    1.3692   -7.1329 C.3       10 UNK         0.0237 
     61 CB         32.4809    1.9372   -5.9262 C.3       10 UNK        -0.1985 
     62 C          32.4076    0.1986   -7.8325 C.2       10 UNK         0.4970 
     63 O          33.5270   -0.1541   -7.4564 O.2       10 UNK        -0.4914 
     64 N          31.7176   -0.3655   -8.8369 N.am      11 UNK        -0.4285 
     65 CA         32.1462   -1.4854   -9.6955 C.3       11 UNK         0.1007 
     66 C          33.5842   -1.3592  -10.2788 C.2       11 UNK         0.5703 
     67 N          33.9105   -0.2232  -10.8832 N.am      11 UNK        -0.7361 
     68 O          34.3959   -2.2797  -10.2085 O.2       11 UNK        -0.4986 
     69 C69        31.7609   -2.8943   -9.1456 C.3       12 UNK        -0.0947 
     70 S70        32.2722   -3.2721   -7.4321 S.3       12 UNK        -0.2240 
     71 C71        30.6967   -2.9630   -6.5817 C.3       12 UNK         0.0194 
     72 H72        23.8432   -6.4626   -2.7228 H         1 UNK         0.0906 
     73 H73        22.3664   -5.6819   -2.1600 H         1 UNK         0.0906 
     74 H74        23.2279   -5.0355   -3.5604 H         1 UNK         0.0906 
     75 H75        25.8467   -5.6753   -1.9923 H         1 UNK         0.3140 
     76 H76        26.0527   -4.1188    0.3204 H         1 UNK         0.1085 
     77 H77        28.6040   -4.1655   -0.3509 H         1 UNK         0.0836 
     78 H78        27.7870   -5.6112    0.1434 H         1 UNK         0.0836 
     79 H79        30.5552   -6.3269   -2.7439 H         1 UNK         0.0731 
     80 H80        30.5077   -5.4777   -1.2242 H         1 UNK         0.0731 
     81 H81        30.1310   -5.0562   -4.9194 H         1 UNK         0.1312 
     82 H82        31.5612   -1.0188   -4.8944 H         1 UNK         0.1406 
     83 H83        30.8263   -3.0579   -1.1923 H         1 UNK         0.1631 
     84 H84        32.6765   -0.5207   -2.1849 H         1 UNK         0.0717 
     85 H85        31.3052   -0.7399   -1.1252 H         1 UNK         0.0717 
     86 H86        28.9013   -0.4318   -2.3491 H         1 UNK         0.0934 
     87 H87        28.4714    1.2456   -2.4489 H         1 UNK         0.0934 
     88 H88        29.4923   -0.0427   -4.9984 H         1 UNK         0.0739 
     89 H89        27.3644   -1.2892   -3.6790 H         1 UNK         0.3093 
     90 H90        25.7392   -2.5761   -6.6066 H         1 UNK         0.0818 
     91 H91        27.3988   -3.8536   -4.3677 H         1 UNK         0.0819 
     92 H92        26.0844   -4.6486   -5.2312 H         1 UNK         0.0819 
     93 H93        27.5408   -4.1662   -6.0866 H         1 UNK         0.0819 
     94 H94        25.3648   -2.4864   -3.6874 H         1 UNK         0.3041 
     95 H95        23.0400    0.1642   -3.8038 H         1 UNK         0.0784 
     96 H96        21.4785   -1.6399   -4.4600 H         1 UNK         0.0793 
     97 H97        22.2973   -2.7815   -3.4071 H         1 UNK         0.0793 
     98 H98        21.4380   -1.4056   -2.7198 H         1 UNK         0.0793 
     99 H99        23.8740   -1.7084   -1.7545 H         1 UNK         0.3024 
    100 H100       26.8357    0.0635   -0.8688 H         1 UNK         0.1171 
    101 H101       25.0817    1.4811    0.2138 H         1 UNK         0.0786 
    102 H102       25.7524    0.3204    1.3467 H         1 UNK         0.0786 
    103 H103       24.1620    0.0428    0.6347 H         1 UNK         0.0786 
    104 H104       25.4853   -2.0574    0.4444 H         1 UNK         0.2977 
    105 H105       26.2054    1.1179   -4.6630 H         1 UNK         0.3127 
    106 H106       26.6679    3.7737   -5.6252 H         1 UNK         0.0770 
    107 H107       24.1582    2.0138   -5.7276 H         1 UNK         0.0814 
    108 H108       24.1974    3.7542   -5.9753 H         1 UNK         0.0814 
    109 H109       24.6091    3.0875   -4.4036 H         1 UNK         0.0814 
    110 H110       26.8759    0.7517   -7.3543 H         1 UNK         0.2983 
    111 H111       26.0489    1.9708   -9.9409 H         1 UNK         0.0947 
    112 H112       25.9347   -0.3668  -10.7132 H         1 UNK         0.0806 
    113 H113       24.9805   -0.1952   -9.2476 H         1 UNK         0.0806 
    114 H114       26.5696   -0.9538   -9.1849 H         1 UNK         0.0806 
    115 H115       27.3862    1.9793  -11.6764 H         1 UNK         0.3000 
    116 H116       29.2296    2.2280  -12.9044 H         1 UNK         0.0850 
    117 H117       30.5421    0.0876  -13.1545 H         1 UNK         0.0810 
    118 H118       28.8087   -0.1734  -13.1353 H         1 UNK         0.0810 
    119 H119       29.7608   -0.5343  -11.7036 H         1 UNK         0.0810 
    120 H120       29.5482    3.7134  -10.6318 H         1 UNK         0.3040 
    121 H121       30.9497    4.8589   -9.3406 H         1 UNK         0.0766 
    122 H122       32.0076    5.4092  -11.5411 H         1 UNK         0.0812 
    123 H123       33.1161    4.0508  -11.3545 H         1 UNK         0.0812 
    124 H124       33.1874    5.4082  -10.2412 H         1 UNK         0.0812 
    125 H125       30.3519    2.4232   -8.3388 H         1 UNK         0.3205 
    126 H126       30.7654    0.9597   -6.7550 H         1 UNK         0.0754 
    127 H127       32.6871    1.1554   -5.1953 H         1 UNK         0.0769 
    128 H128       31.9070    2.7120   -5.4177 H         1 UNK         0.0769 
    129 H129       33.4416    2.3623   -6.2159 H         1 UNK         0.0769 
    130 H130       30.8060    0.0254   -9.0572 H         1 UNK         0.2981 
    131 H131       31.5316   -1.3726  -10.5870 H         1 UNK         0.0541 
    132 H132       34.8331   -0.1129  -11.2708 H         1 UNK         0.3459 
    133 H133       33.2194    0.5159  -10.9913 H         1 UNK         0.3459 
    134 H134       30.6777   -3.0079   -9.2105 H         1 UNK         0.0612 
    135 H135       32.1575   -3.6772   -9.7939 H         1 UNK         0.0612 
    136 H136       29.9556   -3.6850   -6.9277 H         1 UNK         0.0624 
    137 H137       30.3192   -1.9805   -6.8688 H         1 UNK         0.0624 
@<TRIPOS>BOND
     1    1    2 1    
     2    1   72 1    
     3    1   73 1    
     4    1   74 1    
     5    2    3 2    
     6    2    4 am   BACKBONE|DICT|INTERRES
     7    4    5 1    
     8    4   75 1    
     9    5    6 1    
    10    5   35 1    
    11    5   76 1    
    12    6    7 1    
    13    6   77 1    
    14    6   78 1    
    15    7    8 1    
    16    8    9 1    
    17    8   79 1    
    18    8   80 1    
    19    9   10 ar   
    20    9   14 ar   
    21   10   11 ar   
    22   10   81 1    
    23   11   12 ar   
    24   11   71 1    
    25   12   13 ar   
    26   12   82 1    
    27   13   14 ar   
    28   13   15 1    
    29   14   83 1    
    30   15   16 1    
    31   15   84 1    
    32   15   85 1    
    33   16   17 1    
    34   17   18 1    
    35   17   86 1    
    36   17   87 1    
    37   18   19 1    
    38   18   37 1    
    39   18   88 1    
    40   19   20 am   BACKBONE|DICT|INTERRES
    41   19   89 1    
    42   20   21 2    
    43   20   22 1    
    44   22   23 1    
    45   22   24 1    
    46   22   90 1    
    47   23   91 1    
    48   23   92 1    
    49   23   93 1    
    50   24   25 am   BACKBONE|DICT|INTERRES
    51   24   94 1    
    52   25   26 2    
    53   25   27 1    
    54   27   28 1    
    55   27   29 1    
    56   27   95 1    
    57   28   96 1    
    58   28   97 1    
    59   28   98 1    
    60   29   30 am   BACKBONE|DICT|INTERRES
    61   29   99 1    
    62   30   31 2    
    63   30   32 1    
    64   32   33 1    
    65   32   34 1    
    66   32  100 1    
    67   33  101 1    
    68   33  102 1    
    69   33  103 1    
    70   34   35 am   BACKBONE|DICT|INTERRES
    71   34  104 1    
    72   35   36 2    
    73   37   38 2    
    74   37   39 am   BACKBONE|DICT|INTERRES
    75   39   40 1    
    76   39  105 1    
    77   40   41 1    
    78   40   42 1    
    79   40  106 1    
    80   41  107 1    
    81   41  108 1    
    82   41  109 1    
    83   42   43 2    
    84   42   44 am   BACKBONE|DICT|INTERRES
    85   44   45 1    
    86   44  110 1    
    87   45   46 1    
    88   45   47 1    
    89   45  111 1    
    90   46  112 1    
    91   46  113 1    
    92   46  114 1    
    93   47   48 2    
    94   47   49 am   BACKBONE|DICT|INTERRES
    95   49   50 1    
    96   49  115 1    
    97   50   51 1    
    98   50   52 1    
    99   50  116 1    
   100   51  117 1    
   101   51  118 1    
   102   51  119 1    
   103   52   53 2    
   104   52   54 am   BACKBONE|DICT|INTERRES
   105   54   55 1    
   106   54  120 1    
   107   55   56 1    
   108   55   57 1    
   109   55  121 1    
   110   56  122 1    
   111   56  123 1    
   112   56  124 1    
   113   57   58 2    
   114   57   59 am   BACKBONE|DICT|INTERRES
   115   59   60 1    
   116   59  125 1    
   117   60   61 1    
   118   60   62 1    
   119   60  126 1    
   120   61  127 1    
   121   61  128 1    
   122   61  129 1    
   123   62   63 2    
   124   62   64 am   BACKBONE|DICT|INTERRES
   125   64   65 1    
   126   64  130 1    
   127   65   66 1    
   128   65   69 1    
   129   65  131 1    
   130   66   67 am   BACKBONE|DICT|INTERRES
   131   66   68 2    
   132   67  132 1    
   133   67  133 1    
   134   69   70 1    
   135   69  134 1    
   136   69  135 1    
   137   70   71 1    
   138   71  136 1    
   139   71  137 1    
@<TRIPOS>SUBSTRUCTURE
     1 UNK         1 GROUP             0       ****    0 ROOT    
