@<TRIPOS>MOLECULE
3R137
137   139    1
SMALL
USER_CHARGES


@<TRIPOS>ATOM
      1 CA         29.5363    0.4997   -0.3388 C.3       0 UNK        -0.2020 
      2 C          28.7560   -0.6444   -0.9664 C.2       0 UNK         0.4855 
      3 O          27.9909   -0.4199   -1.9035 O.2       0 UNK        -0.5197 
      4 N          28.9435   -1.8715   -0.4643 N.am      1 UNK        -0.4892 
      5 CA         28.3260   -3.0985   -0.9806 C.3       1 UNK         0.0835 
      6 C6         28.8317   -4.3716   -0.2519 C.3       12 UNK        -0.0855 
      7 S7         30.6499   -4.4637   -0.0904 S.3       12 UNK        -0.2931 
      8 C8         31.1264   -5.4135   -1.5684 C.3       12 UNK         0.0378 
      9 C9         31.0074   -4.5806   -2.8361 C.ar      12 UNK        -0.0802 
     10 C10        31.9260   -3.5564   -3.0898 C.ar      12 UNK        -0.0944 
     11 C11        31.8317   -2.7885   -4.2542 C.ar      12 UNK        -0.0787 
     12 C12        30.8041   -3.0477   -5.1654 C.ar      12 UNK        -0.0862 
     13 C13        29.8816   -4.0702   -4.9230 C.ar      12 UNK        -0.0733 
     14 C14        29.9907   -4.8387   -3.7607 C.ar      12 UNK        -0.0832 
     15 C15        28.7859   -4.3602   -5.9335 C.3       12 UNK         0.0240 
     16 S16        27.1713   -3.7285   -5.3776 S.3       12 UNK        -0.2522 
     17 C17        26.3121   -3.6257   -6.9911 C.3       12 UNK        -0.0967 
     18 CA         26.1166   -2.1927   -7.5580 C.3       5 UNK         0.0660 
     19 N          25.0282   -1.4705   -6.8973 N.am      5 UNK        -0.4015 
     20 C          24.4525   -0.3651   -7.3944 C.2       4 UNK         0.4946 
     21 O          24.7495    0.1351   -8.4798 O.2       4 UNK        -0.5353 
     22 CA         23.3979    0.3206   -6.5116 C.3       4 UNK         0.0277 
     23 CB         22.0200   -0.3328   -6.7011 C.3       4 UNK        -0.1981 
     24 N          23.7566    0.3092   -5.0917 N.am      4 UNK        -0.4209 
     25 C          24.8214    0.9252   -4.5643 C.2       3 UNK         0.4942 
     26 O          25.6175    1.5909   -5.2256 O.2       3 UNK        -0.5208 
     27 CA         25.0659    0.7351   -3.0594 C.3       3 UNK         0.0250 
     28 CB         24.0267    1.4936   -2.2102 C.3       3 UNK        -0.1990 
     29 N          25.1916   -0.6732   -2.6548 N.am      3 UNK        -0.4232 
     30 C          24.2538   -1.6359   -2.6477 C.2       2 UNK         0.4993 
     31 O          23.0887   -1.4454   -3.0013 O.2       2 UNK        -0.5286 
     32 CA         24.6701   -3.0570   -2.2153 C.3       2 UNK         0.0209 
     33 CB         24.1517   -4.1139   -3.2082 C.3       2 UNK        -0.1931 
     34 N          26.1222   -3.2081   -2.0687 N.am      2 UNK        -0.4546 
     35 C          26.7859   -3.0166   -0.9210 C.2       1 UNK         0.5154 
     36 O          26.2352   -2.7623    0.1532 O.2       1 UNK        -0.5181 
     37 C          27.4129   -1.3544   -7.5893 C.2       5 UNK         0.5014 
     38 O          28.0754   -1.3059   -8.6223 O.2       5 UNK        -0.5248 
     39 N          27.7221   -0.6793   -6.4728 N.am      6 UNK        -0.4434 
     40 CA         28.8888    0.1848   -6.3019 C.3       6 UNK         0.0363 
     41 CB         29.0259    0.5562   -4.8210 C.3       6 UNK        -0.1936 
     42 C          28.8352    1.4444   -7.1736 C.2       6 UNK         0.5081 
     43 O          29.8759    1.8738   -7.6723 O.2       6 UNK        -0.5248 
     44 N          27.6296    1.9994   -7.3545 N.am      7 UNK        -0.4718 
     45 CA         27.3565    3.1007   -8.2774 C.3       7 UNK         0.0273 
     46 CB         25.9380    3.6365   -8.0269 C.3       7 UNK        -0.1935 
     47 C          27.5339    2.6934   -9.7506 C.2       7 UNK         0.5018 
     48 O          27.9798    3.5177  -10.5497 O.2       7 UNK        -0.5186 
     49 N          27.1932    1.4386  -10.0809 N.am      8 UNK        -0.4240 
     50 CA         27.3955    0.8518  -11.4050 C.3       8 UNK         0.0235 
     51 CB         26.5034   -0.3892  -11.5783 C.3       8 UNK        -0.2000 
     52 C          28.8747    0.5262  -11.6708 C.2       8 UNK         0.4941 
     53 O          29.4022    0.9542  -12.6989 O.2       8 UNK        -0.5273 
     54 N          29.5202   -0.2068  -10.7526 N.am      9 UNK        -0.4262 
     55 CA         30.9248   -0.5993  -10.8431 C.3       9 UNK         0.0264 
     56 CB         31.0940   -1.7526  -11.8536 C.3       9 UNK        -0.1955 
     57 C          31.4474   -1.0118   -9.4525 C.2       9 UNK         0.5031 
     58 O          31.0595   -2.0745   -8.9698 O.2       9 UNK        -0.5390 
     59 N          32.3409   -0.2541   -8.8028 N.am      10 UNK        -0.4204 
     60 CA         32.8479    1.0732   -9.1648 C.3       10 UNK         0.0237 
     61 CB         34.0148    0.9308  -10.1665 C.3       10 UNK        -0.1985 
     62 C          33.2792    1.8849   -7.9272 C.2       10 UNK         0.4970 
     63 O          33.9011    2.9347   -8.0981 O.2       10 UNK        -0.4914 
     64 N          32.9818    1.3969   -6.7131 N.am      11 UNK        -0.4285 
     65 CA         33.3711    2.0357   -5.4450 C.3       11 UNK         0.1007 
     66 C          32.4185    3.1696   -4.9626 C.2       11 UNK         0.5703 
     67 N          31.3099    3.4488   -5.6383 N.am      11 UNK        -0.7361 
     68 O          32.7064    3.8294   -3.9668 O.2       11 UNK        -0.4986 
     69 C69        33.6940    0.9901   -4.3416 C.3       12 UNK        -0.0947 
     70 S70        32.2998   -0.0936   -3.8800 S.3       12 UNK        -0.2240 
     71 C71        32.8511   -1.6953   -4.5366 C.3       12 UNK         0.0194 
     72 H72        30.1789    0.9642   -1.0868 H         1 UNK         0.0906 
     73 H73        28.8510    1.2570    0.0410 H         1 UNK         0.0906 
     74 H74        30.1636    0.1620    0.4860 H         1 UNK         0.0906 
     75 H75        29.5823   -2.0070    0.3062 H         1 UNK         0.3140 
     76 H76        28.6212   -3.1662   -2.0288 H         1 UNK         0.1085 
     77 H77        28.4698   -5.2685   -0.7581 H         1 UNK         0.0836 
     78 H78        28.4223   -4.4154    0.7596 H         1 UNK         0.0836 
     79 H79        32.1605   -5.7423   -1.4551 H         1 UNK         0.0731 
     80 H80        30.5250   -6.3217   -1.6333 H         1 UNK         0.0731 
     81 H81        32.7148   -3.3569   -2.3772 H         1 UNK         0.1312 
     82 H82        30.7297   -2.4622   -6.0715 H         1 UNK         0.1406 
     83 H83        29.2799   -5.6333   -3.5773 H         1 UNK         0.1631 
     84 H84        28.7130   -5.4350   -6.1064 H         1 UNK         0.0717 
     85 H85        29.0466   -3.9118   -6.8941 H         1 UNK         0.0717 
     86 H86        26.8517   -4.2294   -7.7230 H         1 UNK         0.0934 
     87 H87        25.3434   -4.1179   -6.8898 H         1 UNK         0.0934 
     88 H88        25.8098   -2.3152   -8.5996 H         1 UNK         0.0739 
     89 H89        24.7256   -1.8180   -6.0000 H         1 UNK         0.3093 
     90 H90        23.3306    1.3634   -6.8295 H         1 UNK         0.0818 
     91 H91        21.2486    0.2038   -6.1486 H         1 UNK         0.0819 
     92 H92        21.7269   -0.3277   -7.7520 H         1 UNK         0.0819 
     93 H93        22.0125   -1.3702   -6.3641 H         1 UNK         0.0819 
     94 H94        23.1920   -0.2577   -4.4623 H         1 UNK         0.3041 
     95 H95        26.0369    1.1854   -2.8475 H         1 UNK         0.0784 
     96 H96        24.0199    2.5543   -2.4643 H         1 UNK         0.0793 
     97 H97        23.0138    1.1199   -2.3613 H         1 UNK         0.0793 
     98 H98        24.2560    1.4171   -1.1474 H         1 UNK         0.0793 
     99 H99        26.1319   -0.9216   -2.3572 H         1 UNK         0.3024 
    100 H100       24.1850   -3.2431   -1.2543 H         1 UNK         0.1171 
    101 H101       24.4931   -3.9218   -4.2246 H         1 UNK         0.0786 
    102 H102       23.0611   -4.1246   -3.2325 H         1 UNK         0.0786 
    103 H103       24.4749   -5.1166   -2.9280 H         1 UNK         0.0786 
    104 H104       26.6398   -3.3983   -2.9175 H         1 UNK         0.2977 
    105 H105       27.1123   -0.7709   -5.6749 H         1 UNK         0.3127 
    106 H106       29.7743   -0.3783   -6.6011 H         1 UNK         0.0770 
    107 H107       28.1203    1.0161   -4.4262 H         1 UNK         0.0814 
    108 H108       29.8370    1.2661   -4.6636 H         1 UNK         0.0814 
    109 H109       29.2460   -0.3256   -4.2194 H         1 UNK         0.0814 
    110 H110       26.8437    1.6400   -6.8205 H         1 UNK         0.2983 
    111 H111       28.0697    3.9008   -8.0670 H         1 UNK         0.0947 
    112 H112       25.7185    4.4815   -8.6809 H         1 UNK         0.0806 
    113 H113       25.8206    3.9812   -6.9993 H         1 UNK         0.0806 
    114 H114       25.1803    2.8742   -8.2113 H         1 UNK         0.0806 
    115 H115       26.8061    0.8370   -9.3646 H         1 UNK         0.3000 
    116 H116       27.0808    1.5868  -12.1494 H         1 UNK         0.0850 
    117 H117       26.6072   -0.8039  -12.5817 H         1 UNK         0.0810 
    118 H118       25.4512   -0.1421  -11.4357 H         1 UNK         0.0810 
    119 H119       26.7564   -1.1804  -10.8733 H         1 UNK         0.0810 
    120 H120       29.0168   -0.5501   -9.9317 H         1 UNK         0.3040 
    121 H121       31.4878    0.2484  -11.2281 H         1 UNK         0.0766 
    122 H122       32.1309   -2.0887  -11.8906 H         1 UNK         0.0812 
    123 H123       30.8194   -1.4463  -12.8629 H         1 UNK         0.0812 
    124 H124       30.4797   -2.6138  -11.5875 H         1 UNK         0.0812 
    125 H125       32.7291   -0.6362   -7.9544 H         1 UNK         0.3205 
    126 H126       32.0426    1.6530   -9.6198 H         1 UNK         0.0754 
    127 H127       34.3505    1.9069  -10.5194 H         1 UNK         0.0769 
    128 H128       33.7422    0.3522  -11.0480 H         1 UNK         0.0769 
    129 H129       34.8734    0.4394   -9.7072 H         1 UNK         0.0769 
    130 H130       32.3678    0.6036   -6.6281 H         1 UNK         0.2981 
    131 H131       34.3156    2.5523   -5.6264 H         1 UNK         0.0541 
    132 H132       30.7202    4.1984   -5.3159 H         1 UNK         0.3459 
    133 H133       31.0406    2.9112   -6.4550 H         1 UNK         0.3459 
    134 H134       34.5328    0.3727   -4.6663 H         1 UNK         0.0612 
    135 H135       34.0428    1.4903   -3.4365 H         1 UNK         0.0612 
    136 H136       33.0216   -1.6101   -5.6105 H         1 UNK         0.0624 
    137 H137       33.8118   -1.9564   -4.0899 H         1 UNK         0.0624 
@<TRIPOS>BOND
     1    1    2 1    
     2    1   72 1    
     3    1   73 1    
     4    1   74 1    
     5    2    3 2    
     6    2    4 am   BACKBONE|DICT|INTERRES
     7    4    5 1    
     8    4   75 1    
     9    5    6 1    
    10    5   35 1    
    11    5   76 1    
    12    6    7 1    
    13    6   77 1    
    14    6   78 1    
    15    7    8 1    
    16    8    9 1    
    17    8   79 1    
    18    8   80 1    
    19    9   10 ar   
    20    9   14 ar   
    21   10   11 ar   
    22   10   81 1    
    23   11   12 ar   
    24   11   71 1    
    25   12   13 ar   
    26   12   82 1    
    27   13   14 ar   
    28   13   15 1    
    29   14   83 1    
    30   15   16 1    
    31   15   84 1    
    32   15   85 1    
    33   16   17 1    
    34   17   18 1    
    35   17   86 1    
    36   17   87 1    
    37   18   19 1    
    38   18   37 1    
    39   18   88 1    
    40   19   20 am   BACKBONE|DICT|INTERRES
    41   19   89 1    
    42   20   21 2    
    43   20   22 1    
    44   22   23 1    
    45   22   24 1    
    46   22   90 1    
    47   23   91 1    
    48   23   92 1    
    49   23   93 1    
    50   24   25 am   BACKBONE|DICT|INTERRES
    51   24   94 1    
    52   25   26 2    
    53   25   27 1    
    54   27   28 1    
    55   27   29 1    
    56   27   95 1    
    57   28   96 1    
    58   28   97 1    
    59   28   98 1    
    60   29   30 am   BACKBONE|DICT|INTERRES
    61   29   99 1    
    62   30   31 2    
    63   30   32 1    
    64   32   33 1    
    65   32   34 1    
    66   32  100 1    
    67   33  101 1    
    68   33  102 1    
    69   33  103 1    
    70   34   35 am   BACKBONE|DICT|INTERRES
    71   34  104 1    
    72   35   36 2    
    73   37   38 2    
    74   37   39 am   BACKBONE|DICT|INTERRES
    75   39   40 1    
    76   39  105 1    
    77   40   41 1    
    78   40   42 1    
    79   40  106 1    
    80   41  107 1    
    81   41  108 1    
    82   41  109 1    
    83   42   43 2    
    84   42   44 am   BACKBONE|DICT|INTERRES
    85   44   45 1    
    86   44  110 1    
    87   45   46 1    
    88   45   47 1    
    89   45  111 1    
    90   46  112 1    
    91   46  113 1    
    92   46  114 1    
    93   47   48 2    
    94   47   49 am   BACKBONE|DICT|INTERRES
    95   49   50 1    
    96   49  115 1    
    97   50   51 1    
    98   50   52 1    
    99   50  116 1    
   100   51  117 1    
   101   51  118 1    
   102   51  119 1    
   103   52   53 2    
   104   52   54 am   BACKBONE|DICT|INTERRES
   105   54   55 1    
   106   54  120 1    
   107   55   56 1    
   108   55   57 1    
   109   55  121 1    
   110   56  122 1    
   111   56  123 1    
   112   56  124 1    
   113   57   58 2    
   114   57   59 am   BACKBONE|DICT|INTERRES
   115   59   60 1    
   116   59  125 1    
   117   60   61 1    
   118   60   62 1    
   119   60  126 1    
   120   61  127 1    
   121   61  128 1    
   122   61  129 1    
   123   62   63 2    
   124   62   64 am   BACKBONE|DICT|INTERRES
   125   64   65 1    
   126   64  130 1    
   127   65   66 1    
   128   65   69 1    
   129   65  131 1    
   130   66   67 am   BACKBONE|DICT|INTERRES
   131   66   68 2    
   132   67  132 1    
   133   67  133 1    
   134   69   70 1    
   135   69  134 1    
   136   69  135 1    
   137   70   71 1    
   138   71  136 1    
   139   71  137 1    
@<TRIPOS>SUBSTRUCTURE
     1 UNK         1 GROUP             0       ****    0 ROOT    
