@<TRIPOS>MOLECULE
3R137
137   139    1
SMALL
USER_CHARGES


@<TRIPOS>ATOM
      1 CA         27.3714   -0.5827    3.0271 C.3       0 UNK        -0.2020 
      2 C          28.1695   -0.0652    1.8400 C.2       0 UNK         0.4855 
      3 O          28.5585    1.1027    1.8258 O.2       0 UNK        -0.5197 
      4 N          28.4180   -0.9260    0.8446 N.am      1 UNK        -0.4892 
      5 CA         29.1424   -0.6015   -0.3915 C.3       1 UNK         0.0835 
      6 C6         29.6087   -1.8787   -1.1374 C.3       12 UNK        -0.0855 
      7 S7         28.2730   -3.0926   -1.4409 S.3       12 UNK        -0.2931 
      8 C8         29.2283   -4.5493   -1.9736 C.3       12 UNK         0.0378 
      9 C9         29.5728   -4.4825   -3.4542 C.ar      12 UNK        -0.0802 
     10 C10        30.7360   -3.8376   -3.8841 C.ar      12 UNK        -0.0944 
     11 C11        31.0379   -3.7479   -5.2468 C.ar      12 UNK        -0.0787 
     12 C12        30.1774   -4.3342   -6.1824 C.ar      12 UNK        -0.0862 
     13 C13        29.0262   -5.0103   -5.7627 C.ar      12 UNK        -0.0733 
     14 C14        28.7271   -5.0732   -4.3977 C.ar      12 UNK        -0.0832 
     15 C15        28.1345   -5.7247   -6.7709 C.3       12 UNK         0.0240 
     16 S16        26.4317   -5.0703   -6.7879 S.3       12 UNK        -0.2522 
     17 C17        26.2840   -4.3341   -8.4567 C.3       12 UNK        -0.0967 
     18 CA         26.1365   -2.7933   -8.4685 C.3       5 UNK         0.0660 
     19 N          24.9858   -2.3246   -7.6891 N.am      5 UNK        -0.4015 
     20 C          24.5220   -1.0682   -7.6803 C.2       4 UNK         0.4946 
     21 O          24.9980   -0.1658   -8.3707 O.2       4 UNK        -0.5353 
     22 CA         23.3751   -0.7441   -6.7074 C.3       4 UNK         0.0277 
     23 CB         22.0536   -1.3984   -7.1557 C.3       4 UNK        -0.1981 
     24 N          23.6824   -1.0396   -5.2989 N.am      4 UNK        -0.4209 
     25 C          23.9171   -2.2214   -4.7118 C.2       3 UNK         0.4942 
     26 O          23.8854   -3.2923   -5.3192 O.2       3 UNK        -0.5208 
     27 CA         24.2517   -2.2088   -3.2026 C.3       3 UNK         0.0250 
     28 CB         24.7707   -3.5749   -2.7129 C.3       3 UNK        -0.1990 
     29 N          25.2167   -1.1768   -2.7980 N.am      3 UNK        -0.4232 
     30 C          24.9772    0.1401   -2.7002 C.2       2 UNK         0.4993 
     31 O          23.9157    0.6563   -3.0521 O.2       2 UNK        -0.5286 
     32 CA         26.0937    1.0256   -2.1190 C.3       2 UNK         0.0209 
     33 CB         25.5372    2.1995   -1.2910 C.3       2 UNK        -0.1931 
     34 N          27.0173    0.2474   -1.2904 N.am      2 UNK        -0.4546 
     35 C          28.3528    0.3398   -1.3262 C.2       1 UNK         0.5154 
     36 O          28.9646    1.1226   -2.0537 O.2       1 UNK        -0.5181 
     37 C          27.4424   -2.0849   -8.0625 C.2       5 UNK         0.5014 
     38 O          28.2700   -1.8017   -8.9267 O.2       5 UNK        -0.5248 
     39 N          27.5731   -1.7605   -6.7694 N.am      6 UNK        -0.4434 
     40 CA         28.6816   -0.9922   -6.2101 C.3       6 UNK         0.0363 
     41 CB         28.5673   -0.9883   -4.6822 C.3       6 UNK        -0.1936 
     42 C          28.7451    0.4469   -6.7409 C.2       6 UNK         0.5081 
     43 O          29.8368    0.9476   -7.0111 O.2       6 UNK        -0.5248 
     44 N          27.5722    1.0738   -6.9085 N.am      7 UNK        -0.4718 
     45 CA         27.4282    2.4116   -7.4824 C.3       7 UNK         0.0273 
     46 CB         26.0375    2.9745   -7.1480 C.3       7 UNK        -0.1935 
     47 C          27.6784    2.4128   -8.9981 C.2       7 UNK         0.5018 
     48 O          28.2998    3.3486   -9.5005 O.2       7 UNK        -0.5186 
     49 N          27.2278    1.3539   -9.6887 N.am      8 UNK        -0.4240 
     50 CA         27.4894    1.1186  -11.1116 C.3       8 UNK         0.0235 
     51 CB         26.6216   -0.0453  -11.6164 C.3       8 UNK        -0.2000 
     52 C          28.9794    0.8635  -11.4031 C.2       8 UNK         0.4941 
     53 O          29.5114    1.4271  -12.3601 O.2       8 UNK        -0.5273 
     54 N          29.6297    0.0450  -10.5625 N.am      9 UNK        -0.4262 
     55 CA         31.0716   -0.2179  -10.5971 C.3       9 UNK         0.0264 
     56 CB         31.3902   -1.4248   -9.6972 C.3       9 UNK        -0.1955 
     57 C          31.9192    0.9923  -10.1673 C.2       9 UNK         0.5031 
     58 O          33.0579    1.1152  -10.6206 O.2       9 UNK        -0.5390 
     59 N          31.3564    1.8372   -9.2901 N.am      10 UNK        -0.4204 
     60 CA         31.9738    2.9864   -8.6205 C.3       10 UNK         0.0237 
     61 CB         32.3460    4.0908   -9.6326 C.3       10 UNK        -0.1985 
     62 C          33.1443    2.5629   -7.7123 C.2       10 UNK         0.4970 
     63 O          34.1729    3.2410   -7.6735 O.2       10 UNK        -0.4914 
     64 N          32.9674    1.4367   -7.0083 N.am      11 UNK        -0.4285 
     65 CA         33.9723    0.8435   -6.1121 C.3       11 UNK         0.1007 
     66 C          34.0795    1.5155   -4.7114 C.2       11 UNK         0.5703 
     67 N          33.1847    2.4228   -4.3374 N.am      11 UNK        -0.7361 
     68 O          35.0053    1.2216   -3.9586 O.2       11 UNK        -0.4986 
     69 C69        33.8241   -0.6991   -6.0282 C.3       12 UNK        -0.0947 
     70 S70        32.2173   -1.2465   -5.3669 S.3       12 UNK        -0.2240 
     71 C71        32.3033   -3.0320   -5.7000 C.3       12 UNK         0.0194 
     72 H72        27.0980   -1.6311    2.9098 H         1 UNK         0.0906 
     73 H73        27.9548   -0.4853    3.9422 H         1 UNK         0.0906 
     74 H74        26.4554   -0.0044    3.1439 H         1 UNK         0.0906 
     75 H75        28.0837   -1.8786    0.9056 H         1 UNK         0.3140 
     76 H76        30.0403   -0.0495   -0.1035 H         1 UNK         0.1085 
     77 H77        30.0848   -1.6211   -2.0852 H         1 UNK         0.0836 
     78 H78        30.3831   -2.3684   -0.5450 H         1 UNK         0.0836 
     79 H79        30.1346   -4.6462   -1.3741 H         1 UNK         0.0731 
     80 H80        28.6379   -5.4444   -1.7719 H         1 UNK         0.0731 
     81 H81        31.4008   -3.3872   -3.1602 H         1 UNK         0.1312 
     82 H82        30.4124   -4.2772   -7.2365 H         1 UNK         0.1406 
     83 H83        27.8333   -5.5877   -4.0710 H         1 UNK         0.1631 
     84 H84        28.0909   -6.7817   -6.5049 H         1 UNK         0.0717 
     85 H85        28.5748   -5.6891   -7.7677 H         1 UNK         0.0717 
     86 H86        27.1200   -4.6382   -9.0887 H         1 UNK         0.0934 
     87 H87        25.4036   -4.7766   -8.9253 H         1 UNK         0.0934 
     88 H88        25.9418   -2.5022   -9.5025 H         1 UNK         0.0739 
     89 H89        24.5801   -2.9812   -7.0244 H         1 UNK         0.3093 
     90 H90        23.2295    0.3366   -6.7523 H         1 UNK         0.0818 
     91 H91        21.2254   -1.0919   -6.5167 H         1 UNK         0.0819 
     92 H92        21.8012   -1.1039   -8.1752 H         1 UNK         0.0819 
     93 H93        22.1031   -2.4873   -7.1373 H         1 UNK         0.0819 
     94 H94        23.7161   -0.2311   -4.6803 H         1 UNK         0.3041 
     95 H95        23.3125   -2.0087   -2.6827 H         1 UNK         0.0784 
     96 H96        24.0443   -4.3655   -2.9060 H         1 UNK         0.0793 
     97 H97        25.6983   -3.8553   -3.2145 H         1 UNK         0.0793 
     98 H98        24.9587   -3.5696   -1.6391 H         1 UNK         0.0793 
     99 H99        26.1301   -1.5133   -2.5266 H         1 UNK         0.3024 
    100 H100       26.6246    1.4390   -2.9797 H         1 UNK         0.1171 
    101 H101       24.9515    1.8489   -0.4406 H         1 UNK         0.0786 
    102 H102       26.3410    2.8280   -0.9071 H         1 UNK         0.0786 
    103 H103       24.8909    2.8384   -1.8944 H         1 UNK         0.0786 
    104 H104       26.6046   -0.4101   -0.6427 H         1 UNK         0.2977 
    105 H105       26.8621   -2.0781   -6.1282 H         1 UNK         0.3127 
    106 H106       29.6041   -1.4958   -6.4981 H         1 UNK         0.0770 
    107 H107       27.6800   -0.4551   -4.3437 H         1 UNK         0.0814 
    108 H108       29.4338   -0.5007   -4.2347 H         1 UNK         0.0814 
    109 H109       28.5232   -2.0006   -4.2853 H         1 UNK         0.0814 
    110 H110       26.7203    0.5674   -6.7174 H         1 UNK         0.2983 
    111 H111       28.1766    3.0620   -7.0232 H         1 UNK         0.0947 
    112 H112       25.9289    3.9902   -7.5308 H         1 UNK         0.0806 
    113 H113       25.8743    3.0161   -6.0710 H         1 UNK         0.0806 
    114 H114       25.2381    2.3765   -7.5861 H         1 UNK         0.0806 
    115 H115       26.6646    0.6643   -9.2006 H         1 UNK         0.3000 
    116 H116       27.1950    2.0198  -11.6538 H         1 UNK         0.0850 
    117 H117       26.7420   -0.1804  -12.6920 H         1 UNK         0.0810 
    118 H118       25.5633    0.1364  -11.4275 H         1 UNK         0.0810 
    119 H119       26.8900   -0.9876  -11.1396 H         1 UNK         0.0810 
    120 H120       29.0947   -0.4600   -9.8569 H         1 UNK         0.3040 
    121 H121       31.3467   -0.4698  -11.6234 H         1 UNK         0.0766 
    122 H122       31.1162   -1.2372   -8.6578 H         1 UNK         0.0812 
    123 H123       32.4556   -1.6582   -9.7162 H         1 UNK         0.0812 
    124 H124       30.8566   -2.3167  -10.0261 H         1 UNK         0.0812 
    125 H125       30.4464    1.5803   -8.9247 H         1 UNK         0.3205 
    126 H126       31.2085    3.3936   -7.9580 H         1 UNK         0.0754 
    127 H127       32.6784    4.9942   -9.1197 H         1 UNK         0.0769 
    128 H128       31.4894    4.3648  -10.2487 H         1 UNK         0.0769 
    129 H129       33.1523    3.7795  -10.2973 H         1 UNK         0.0769 
    130 H130       32.0678    0.9717   -7.0432 H         1 UNK         0.2981 
    131 H131       34.9460    1.0199   -6.5732 H         1 UNK         0.0541 
    132 H132       32.4167    2.6600   -4.9438 H         1 UNK         0.3459 
    133 H133       33.2684    2.8556   -3.4315 H         1 UNK         0.3459 
    134 H134       34.6192   -1.1312   -5.4180 H         1 UNK         0.0612 
    135 H135       33.9465   -1.1269   -7.0245 H         1 UNK         0.0612 
    136 H136       32.4729   -3.1870   -6.7667 H         1 UNK         0.0624 
    137 H137       33.1642   -3.4548   -5.1804 H         1 UNK         0.0624 
@<TRIPOS>BOND
     1    1    2 1    
     2    1   72 1    
     3    1   73 1    
     4    1   74 1    
     5    2    3 2    
     6    2    4 am   BACKBONE|DICT|INTERRES
     7    4    5 1    
     8    4   75 1    
     9    5    6 1    
    10    5   35 1    
    11    5   76 1    
    12    6    7 1    
    13    6   77 1    
    14    6   78 1    
    15    7    8 1    
    16    8    9 1    
    17    8   79 1    
    18    8   80 1    
    19    9   10 ar   
    20    9   14 ar   
    21   10   11 ar   
    22   10   81 1    
    23   11   12 ar   
    24   11   71 1    
    25   12   13 ar   
    26   12   82 1    
    27   13   14 ar   
    28   13   15 1    
    29   14   83 1    
    30   15   16 1    
    31   15   84 1    
    32   15   85 1    
    33   16   17 1    
    34   17   18 1    
    35   17   86 1    
    36   17   87 1    
    37   18   19 1    
    38   18   37 1    
    39   18   88 1    
    40   19   20 am   BACKBONE|DICT|INTERRES
    41   19   89 1    
    42   20   21 2    
    43   20   22 1    
    44   22   23 1    
    45   22   24 1    
    46   22   90 1    
    47   23   91 1    
    48   23   92 1    
    49   23   93 1    
    50   24   25 am   BACKBONE|DICT|INTERRES
    51   24   94 1    
    52   25   26 2    
    53   25   27 1    
    54   27   28 1    
    55   27   29 1    
    56   27   95 1    
    57   28   96 1    
    58   28   97 1    
    59   28   98 1    
    60   29   30 am   BACKBONE|DICT|INTERRES
    61   29   99 1    
    62   30   31 2    
    63   30   32 1    
    64   32   33 1    
    65   32   34 1    
    66   32  100 1    
    67   33  101 1    
    68   33  102 1    
    69   33  103 1    
    70   34   35 am   BACKBONE|DICT|INTERRES
    71   34  104 1    
    72   35   36 2    
    73   37   38 2    
    74   37   39 am   BACKBONE|DICT|INTERRES
    75   39   40 1    
    76   39  105 1    
    77   40   41 1    
    78   40   42 1    
    79   40  106 1    
    80   41  107 1    
    81   41  108 1    
    82   41  109 1    
    83   42   43 2    
    84   42   44 am   BACKBONE|DICT|INTERRES
    85   44   45 1    
    86   44  110 1    
    87   45   46 1    
    88   45   47 1    
    89   45  111 1    
    90   46  112 1    
    91   46  113 1    
    92   46  114 1    
    93   47   48 2    
    94   47   49 am   BACKBONE|DICT|INTERRES
    95   49   50 1    
    96   49  115 1    
    97   50   51 1    
    98   50   52 1    
    99   50  116 1    
   100   51  117 1    
   101   51  118 1    
   102   51  119 1    
   103   52   53 2    
   104   52   54 am   BACKBONE|DICT|INTERRES
   105   54   55 1    
   106   54  120 1    
   107   55   56 1    
   108   55   57 1    
   109   55  121 1    
   110   56  122 1    
   111   56  123 1    
   112   56  124 1    
   113   57   58 2    
   114   57   59 am   BACKBONE|DICT|INTERRES
   115   59   60 1    
   116   59  125 1    
   117   60   61 1    
   118   60   62 1    
   119   60  126 1    
   120   61  127 1    
   121   61  128 1    
   122   61  129 1    
   123   62   63 2    
   124   62   64 am   BACKBONE|DICT|INTERRES
   125   64   65 1    
   126   64  130 1    
   127   65   66 1    
   128   65   69 1    
   129   65  131 1    
   130   66   67 am   BACKBONE|DICT|INTERRES
   131   66   68 2    
   132   67  132 1    
   133   67  133 1    
   134   69   70 1    
   135   69  134 1    
   136   69  135 1    
   137   70   71 1    
   138   71  136 1    
   139   71  137 1    
@<TRIPOS>SUBSTRUCTURE
     1 UNK         1 GROUP             0       ****    0 ROOT    
