@<TRIPOS>MOLECULE
3R137
137   139    1
SMALL
USER_CHARGES


@<TRIPOS>ATOM
      1 CA         25.0479   -2.8621    3.1943 C.3       0 UNK        -0.2020 
      2 C          26.5111   -2.7485    2.7930 C.2       0 UNK         0.4855 
      3 O          27.3914   -2.8744    3.6451 O.2       0 UNK        -0.5197 
      4 N          26.7761   -2.5087    1.5057 N.am      1 UNK        -0.4892 
      5 CA         28.1139   -2.3517    0.9369 C.3       1 UNK         0.0835 
      6 C6         28.8733   -3.7004    0.7507 C.3       12 UNK        -0.0855 
      7 S7         28.0234   -4.9307   -0.3065 S.3       12 UNK        -0.2931 
      8 C8         29.4294   -5.7954   -1.0765 C.3       12 UNK         0.0378 
      9 C9         29.9258   -5.1102   -2.3450 C.ar      12 UNK        -0.0802 
     10 C10        31.0156   -4.2331   -2.3032 C.ar      12 UNK        -0.0944 
     11 C11        31.5329   -3.6705   -3.4763 C.ar      12 UNK        -0.0787 
     12 C12        30.9435   -4.0058   -4.7020 C.ar      12 UNK        -0.0862 
     13 C13        29.8497   -4.8716   -4.7601 C.ar      12 UNK        -0.0733 
     14 C14        29.3377   -5.4136   -3.5777 C.ar      12 UNK        -0.0832 
     15 C15        29.2602   -5.2542   -6.1112 C.3       12 UNK         0.0240 
     16 S16        27.8549   -4.1998   -6.5798 S.3       12 UNK        -0.2522 
     17 C17        28.6363   -2.5521   -6.6773 C.3       12 UNK        -0.0967 
     18 CA         27.7674   -1.5145   -7.4249 C.3       5 UNK         0.0660 
     19 N          26.3914   -1.4629   -6.9254 N.am      5 UNK        -0.4015 
     20 C          25.3625   -0.9323   -7.6001 C.2       4 UNK         0.4946 
     21 O          25.4699   -0.4525   -8.7275 O.2       4 UNK        -0.5353 
     22 CA         23.9996   -0.8674   -6.8849 C.3       4 UNK         0.0277 
     23 CB         23.1623   -2.1123   -7.2157 C.3       4 UNK        -0.1981 
     24 N          24.1047   -0.7210   -5.4296 N.am      4 UNK        -0.4209 
     25 C          24.7397    0.2799   -4.8036 C.2       3 UNK         0.4942 
     26 O          25.2565    1.2275   -5.3970 O.2       3 UNK        -0.5208 
     27 CA         24.9026    0.1728   -3.2751 C.3       3 UNK         0.0250 
     28 CB         23.8964   -0.7888   -2.6031 C.3       3 UNK        -0.1990 
     29 N          26.2775   -0.1893   -2.9027 N.am      3 UNK        -0.4232 
     30 C          26.9841   -1.2456   -3.3336 C.2       2 UNK         0.4993 
     31 O          26.5495   -2.0844   -4.1218 O.2       2 UNK        -0.5286 
     32 CA         28.4195   -1.4006   -2.8064 C.3       2 UNK         0.0209 
     33 CB         29.2501   -0.1064   -2.9042 C.3       2 UNK        -0.1931 
     34 N          28.4618   -1.9757   -1.4635 N.am      2 UNK        -0.4546 
     35 C          27.9974   -1.4659   -0.3169 C.2       1 UNK         0.5154 
     36 O          27.4848   -0.3488   -0.2170 O.2       1 UNK        -0.5181 
     37 C          28.4440   -0.1268   -7.4083 C.2       5 UNK         0.5014 
     38 O          29.3880    0.0802   -8.1728 O.2       5 UNK        -0.5248 
     39 N          27.9677    0.8062   -6.5664 N.am      6 UNK        -0.4434 
     40 CA         28.3958    2.2068   -6.5952 C.3       6 UNK         0.0363 
     41 CB         28.1696    2.8889   -5.2363 C.3       6 UNK        -0.1936 
     42 C          27.6928    2.9715   -7.7233 C.2       6 UNK         0.5081 
     43 O          28.3454    3.7554   -8.4100 O.2       6 UNK        -0.5248 
     44 N          26.3997    2.6883   -7.9438 N.am      7 UNK        -0.4718 
     45 CA         25.6200    3.2143   -9.0718 C.3       7 UNK         0.0273 
     46 CB         24.1400    2.8355   -8.9053 C.3       7 UNK        -0.1935 
     47 C          26.1610    2.7485  -10.4375 C.2       7 UNK         0.5018 
     48 O          26.2060    3.5441  -11.3759 O.2       7 UNK        -0.5186 
     49 N          26.6116    1.4875  -10.5054 N.am      8 UNK        -0.4240 
     50 CA         27.3165    0.8984  -11.6486 C.3       8 UNK         0.0235 
     51 CB         27.2617   -0.6338  -11.5290 C.3       8 UNK        -0.2000 
     52 C          28.7794    1.3675  -11.7962 C.2       8 UNK         0.4941 
     53 O          29.4059    1.0325  -12.8022 O.2       8 UNK        -0.5273 
     54 N          29.3027    2.1075  -10.8057 N.am      9 UNK        -0.4262 
     55 CA         30.6614    2.6562  -10.7154 C.3       9 UNK         0.0264 
     56 CB         30.9169    3.6906  -11.8326 C.3       9 UNK        -0.1955 
     57 C          31.7717    1.5894  -10.6188 C.2       9 UNK         0.5031 
     58 O          32.9104    1.8621  -11.0036 O.2       9 UNK        -0.5390 
     59 N          31.4434    0.4116  -10.0714 N.am      10 UNK        -0.4204 
     60 CA         32.4025   -0.6458   -9.7420 C.3       10 UNK         0.0237 
     61 CB         31.6967   -2.0114   -9.7742 C.3       10 UNK        -0.1985 
     62 C          33.0519   -0.3929   -8.3712 C.2       10 UNK         0.4970 
     63 O          34.2568   -0.6003   -8.2265 O.2       10 UNK        -0.4914 
     64 N          32.2450    0.0818   -7.4146 N.am      11 UNK        -0.4285 
     65 CA         32.6512    0.5153   -6.0681 C.3       11 UNK         0.1007 
     66 C          32.2007    1.9786   -5.7855 C.2       11 UNK         0.5703 
     67 N          32.1015    2.8322   -6.7984 N.am      11 UNK        -0.7361 
     68 O          31.9472    2.3590   -4.6456 O.2       11 UNK        -0.4986 
     69 C69        32.2040   -0.5024   -4.9791 C.3       12 UNK        -0.0947 
     70 S70        33.3007   -1.9550   -4.9211 S.3       12 UNK        -0.2240 
     71 C71        32.7585   -2.7586   -3.3695 C.3       12 UNK         0.0194 
     72 H72        24.3795   -2.7328    2.3431 H         1 UNK         0.0906 
     73 H73        24.8541   -3.8415    3.6309 H         1 UNK         0.0906 
     74 H74        24.8022   -2.1032    3.9367 H         1 UNK         0.0906 
     75 H75        26.0187   -2.3727    0.8496 H         1 UNK         0.3140 
     76 H76        28.6994   -1.7519    1.6379 H         1 UNK         0.1085 
     77 H77        29.8787   -3.5117    0.3721 H         1 UNK         0.0836 
     78 H78        29.0249   -4.1632    1.7271 H         1 UNK         0.0836 
     79 H79        29.1159   -6.8125   -1.3170 H         1 UNK         0.0731 
     80 H80        30.2402   -5.9008   -0.3537 H         1 UNK         0.0731 
     81 H81        31.4865   -4.0094   -1.3556 H         1 UNK         0.1312 
     82 H82        31.3367   -3.6128   -5.6277 H         1 UNK         0.1406 
     83 H83        28.4991   -6.0958   -3.6205 H         1 UNK         0.1631 
     84 H84        28.9254   -6.2922   -6.0855 H         1 UNK         0.0717 
     85 H85        30.0233   -5.2035   -6.8895 H         1 UNK         0.0717 
     86 H86        28.8498   -2.2140   -5.6654 H         1 UNK         0.0934 
     87 H87        29.6030   -2.6569   -7.1715 H         1 UNK         0.0934 
     88 H88        27.7207   -1.8295   -8.4687 H         1 UNK         0.0739 
     89 H89        26.2448   -1.8326   -5.9881 H         1 UNK         0.3093 
     90 H90        23.4737    0.0108   -7.2641 H         1 UNK         0.0818 
     91 H91        22.1600   -2.0419   -6.7927 H         1 UNK         0.0819 
     92 H92        23.0490   -2.2297   -8.2945 H         1 UNK         0.0819 
     93 H93        23.6259   -3.0238   -6.8357 H         1 UNK         0.0819 
     94 H94        23.7497   -1.4813   -4.8677 H         1 UNK         0.3041 
     95 H95        24.7221    1.1731   -2.8787 H         1 UNK         0.0784 
     96 H96        22.8687   -0.5312   -2.8633 H         1 UNK         0.0793 
     97 H97        24.0623   -1.8297   -2.8832 H         1 UNK         0.0793 
     98 H98        23.9732   -0.7299   -1.5172 H         1 UNK         0.0793 
     99 H99        26.7161    0.4011   -2.2065 H         1 UNK         0.3024 
    100 H100       28.9048   -2.1438   -3.4387 H         1 UNK         0.1171 
    101 H101       30.2707   -0.2727   -2.5604 H         1 UNK         0.0786 
    102 H102       29.3103    0.2324   -3.9380 H         1 UNK         0.0786 
    103 H103       28.8348    0.7092   -2.3123 H         1 UNK         0.0786 
    104 H104       28.7797   -2.9370   -1.4280 H         1 UNK         0.2977 
    105 H105       27.1459    0.6024   -6.0094 H         1 UNK         0.3127 
    106 H106       29.4649    2.2405   -6.8024 H         1 UNK         0.0770 
    107 H107       27.1210    2.8954   -4.9424 H         1 UNK         0.0814 
    108 H108       28.4985    3.9283   -5.2709 H         1 UNK         0.0814 
    109 H109       28.7405    2.4057   -4.4456 H         1 UNK         0.0814 
    110 H110       25.9258    2.0598   -7.3053 H         1 UNK         0.2983 
    111 H111       25.6965    4.3036   -9.0441 H         1 UNK         0.0947 
    112 H112       23.5341    3.2870   -9.6920 H         1 UNK         0.0806 
    113 H113       23.7444    3.1842   -7.9511 H         1 UNK         0.0806 
    114 H114       23.9873    1.7579   -8.9588 H         1 UNK         0.0806 
    115 H115       26.4241    0.8695   -9.7192 H         1 UNK         0.3000 
    116 H116       26.7899    1.1895  -12.5599 H         1 UNK         0.0850 
    117 H117       27.6947   -1.1116  -12.4089 H         1 UNK         0.0810 
    118 H118       26.2355   -0.9909  -11.4392 H         1 UNK         0.0810 
    119 H119       27.8182   -0.9871  -10.6612 H         1 UNK         0.0810 
    120 H120       28.6999    2.3480  -10.0281 H         1 UNK         0.3040 
    121 H121       30.6947    3.1945   -9.7672 H         1 UNK         0.0766 
    122 H122       30.9738    3.2210  -12.8149 H         1 UNK         0.0812 
    123 H123       31.8576    4.2183  -11.6711 H         1 UNK         0.0812 
    124 H124       30.1279    4.4421  -11.8641 H         1 UNK         0.0812 
    125 H125       30.5015    0.2959   -9.7058 H         1 UNK         0.3205 
    126 H126       33.1956   -0.6597  -10.4928 H         1 UNK         0.0754 
    127 H127       32.3904   -2.8156   -9.5251 H         1 UNK         0.0769 
    128 H128       31.2959   -2.2237  -10.7656 H         1 UNK         0.0769 
    129 H129       30.8714   -2.0599   -9.0650 H         1 UNK         0.0769 
    130 H130       31.2634    0.2140   -7.6369 H         1 UNK         0.2981 
    131 H131       33.7397    0.5822   -6.0268 H         1 UNK         0.0541 
    132 H132       31.8243    3.7828   -6.6119 H         1 UNK         0.3459 
    133 H133       32.3653    2.5544   -7.7287 H         1 UNK         0.3459 
    134 H134       31.1766   -0.8287   -5.1453 H         1 UNK         0.0612 
    135 H135       32.2330   -0.0538   -3.9855 H         1 UNK         0.0612 
    136 H136       33.5918   -3.3592   -3.0026 H         1 UNK         0.0624 
    137 H137       32.5780   -1.9931   -2.6135 H         1 UNK         0.0624 
@<TRIPOS>BOND
     1    1    2 1    
     2    1   72 1    
     3    1   73 1    
     4    1   74 1    
     5    2    3 2    
     6    2    4 am   BACKBONE|DICT|INTERRES
     7    4    5 1    
     8    4   75 1    
     9    5    6 1    
    10    5   35 1    
    11    5   76 1    
    12    6    7 1    
    13    6   77 1    
    14    6   78 1    
    15    7    8 1    
    16    8    9 1    
    17    8   79 1    
    18    8   80 1    
    19    9   10 ar   
    20    9   14 ar   
    21   10   11 ar   
    22   10   81 1    
    23   11   12 ar   
    24   11   71 1    
    25   12   13 ar   
    26   12   82 1    
    27   13   14 ar   
    28   13   15 1    
    29   14   83 1    
    30   15   16 1    
    31   15   84 1    
    32   15   85 1    
    33   16   17 1    
    34   17   18 1    
    35   17   86 1    
    36   17   87 1    
    37   18   19 1    
    38   18   37 1    
    39   18   88 1    
    40   19   20 am   BACKBONE|DICT|INTERRES
    41   19   89 1    
    42   20   21 2    
    43   20   22 1    
    44   22   23 1    
    45   22   24 1    
    46   22   90 1    
    47   23   91 1    
    48   23   92 1    
    49   23   93 1    
    50   24   25 am   BACKBONE|DICT|INTERRES
    51   24   94 1    
    52   25   26 2    
    53   25   27 1    
    54   27   28 1    
    55   27   29 1    
    56   27   95 1    
    57   28   96 1    
    58   28   97 1    
    59   28   98 1    
    60   29   30 am   BACKBONE|DICT|INTERRES
    61   29   99 1    
    62   30   31 2    
    63   30   32 1    
    64   32   33 1    
    65   32   34 1    
    66   32  100 1    
    67   33  101 1    
    68   33  102 1    
    69   33  103 1    
    70   34   35 am   BACKBONE|DICT|INTERRES
    71   34  104 1    
    72   35   36 2    
    73   37   38 2    
    74   37   39 am   BACKBONE|DICT|INTERRES
    75   39   40 1    
    76   39  105 1    
    77   40   41 1    
    78   40   42 1    
    79   40  106 1    
    80   41  107 1    
    81   41  108 1    
    82   41  109 1    
    83   42   43 2    
    84   42   44 am   BACKBONE|DICT|INTERRES
    85   44   45 1    
    86   44  110 1    
    87   45   46 1    
    88   45   47 1    
    89   45  111 1    
    90   46  112 1    
    91   46  113 1    
    92   46  114 1    
    93   47   48 2    
    94   47   49 am   BACKBONE|DICT|INTERRES
    95   49   50 1    
    96   49  115 1    
    97   50   51 1    
    98   50   52 1    
    99   50  116 1    
   100   51  117 1    
   101   51  118 1    
   102   51  119 1    
   103   52   53 2    
   104   52   54 am   BACKBONE|DICT|INTERRES
   105   54   55 1    
   106   54  120 1    
   107   55   56 1    
   108   55   57 1    
   109   55  121 1    
   110   56  122 1    
   111   56  123 1    
   112   56  124 1    
   113   57   58 2    
   114   57   59 am   BACKBONE|DICT|INTERRES
   115   59   60 1    
   116   59  125 1    
   117   60   61 1    
   118   60   62 1    
   119   60  126 1    
   120   61  127 1    
   121   61  128 1    
   122   61  129 1    
   123   62   63 2    
   124   62   64 am   BACKBONE|DICT|INTERRES
   125   64   65 1    
   126   64  130 1    
   127   65   66 1    
   128   65   69 1    
   129   65  131 1    
   130   66   67 am   BACKBONE|DICT|INTERRES
   131   66   68 2    
   132   67  132 1    
   133   67  133 1    
   134   69   70 1    
   135   69  134 1    
   136   69  135 1    
   137   70   71 1    
   138   71  136 1    
   139   71  137 1    
@<TRIPOS>SUBSTRUCTURE
     1 UNK         1 GROUP             0       ****    0 ROOT    
