@<TRIPOS>MOLECULE
3R137
137   139    1
SMALL
USER_CHARGES


@<TRIPOS>ATOM
      1 CA         30.8150   -0.1995   -0.3835 C.3       0 UNK        -0.2020 
      2 C          29.6986   -1.2324   -0.4061 C.2       0 UNK         0.4855 
      3 O          28.8933   -1.2791    0.5240 O.2       0 UNK        -0.5197 
      4 N          29.6341   -2.0424   -1.4710 N.am      1 UNK        -0.4892 
      5 CA         28.6972   -3.1519   -1.7311 C.3       1 UNK         0.0835 
      6 C6         28.7285   -4.2971   -0.6766 C.3       12 UNK        -0.0855 
      7 S7         30.3977   -4.8826   -0.2127 S.3       12 UNK        -0.2931 
      8 C8         30.7608   -6.1213   -1.5013 C.3       12 UNK         0.0378 
      9 C9         30.9900   -5.4648   -2.8544 C.ar      12 UNK        -0.0802 
     10 C10        32.0455   -4.5614   -3.0211 C.ar      12 UNK        -0.0944 
     11 C11        32.2129   -3.8865   -4.2317 C.ar      12 UNK        -0.0787 
     12 C12        31.3436   -4.1474   -5.2898 C.ar      12 UNK        -0.0862 
     13 C13        30.2800   -5.0375   -5.1349 C.ar      12 UNK        -0.0733 
     14 C14        30.1172   -5.7115   -3.9204 C.ar      12 UNK        -0.0832 
     15 C15        29.2772   -5.2187   -6.2636 C.3       12 UNK         0.0240 
     16 S16        27.7374   -4.3012   -5.9347 S.3       12 UNK        -0.2522 
     17 C17        28.2980   -2.5602   -5.8586 C.3       12 UNK        -0.0967 
     18 CA         27.4777   -1.6490   -6.7961 C.3       5 UNK         0.0660 
     19 N          26.0523   -1.6464   -6.4558 N.am      5 UNK        -0.4015 
     20 C          25.0832   -1.2541   -7.2921 C.2       4 UNK         0.4946 
     21 O          25.2893   -0.8352   -8.4316 O.2       4 UNK        -0.5353 
     22 CA         23.6456   -1.3063   -6.7505 C.3       4 UNK         0.0277 
     23 CB         23.1450   -2.7573   -6.6595 C.3       4 UNK        -0.1981 
     24 N          23.5058   -0.6497   -5.4477 N.am      4 UNK        -0.4209 
     25 C          23.7125    0.6578   -5.2364 C.2       3 UNK         0.4942 
     26 O          24.0419    1.4489   -6.1167 O.2       3 UNK        -0.5208 
     27 CA         23.5471    1.1815   -3.8019 C.3       3 UNK         0.0250 
     28 CB         22.0893    1.5994   -3.5513 C.3       3 UNK        -0.1990 
     29 N          23.9751    0.2533   -2.7525 N.am      3 UNK        -0.4232 
     30 C          25.1937   -0.2924   -2.6302 C.2       2 UNK         0.4993 
     31 O          26.0968   -0.1487   -3.4612 O.2       2 UNK        -0.5286 
     32 CA         25.4252   -1.0919   -1.3321 C.3       2 UNK         0.0209 
     33 CB         24.3111   -2.1316   -1.0692 C.3       2 UNK        -0.1931 
     34 N          26.7503   -1.7161   -1.2581 N.am      2 UNK        -0.4546 
     35 C          27.2401   -2.7144   -2.0032 C.2       1 UNK         0.5154 
     36 O          26.5918   -3.2985   -2.8715 O.2       1 UNK        -0.5181 
     37 C          28.0554   -0.2196   -6.8465 C.2       5 UNK         0.5014 
     38 O          28.9645    0.0350   -7.6420 O.2       5 UNK        -0.5248 
     39 N          27.5046    0.6944   -6.0319 N.am      6 UNK        -0.4434 
     40 CA         27.8046    2.1257   -6.0816 C.3       6 UNK         0.0363 
     41 CB         27.2082    2.8336   -4.8561 C.3       6 UNK        -0.1936 
     42 C          27.3193    2.7748   -7.3895 C.2       6 UNK         0.5081 
     43 O          28.0948    3.4863   -8.0257 O.2       6 UNK        -0.5248 
     44 N          26.0749    2.4853   -7.8004 N.am      7 UNK        -0.4718 
     45 CA         25.4833    2.9416   -9.0651 C.3       7 UNK         0.0273 
     46 CB         23.9852    2.6009   -9.0955 C.3       7 UNK        -0.1935 
     47 C          26.1902    2.3689  -10.3045 C.2       7 UNK         0.5018 
     48 O          26.3274    3.0773  -11.3023 O.2       7 UNK        -0.5186 
     49 N          26.6670    1.1198  -10.2048 N.am      8 UNK        -0.4240 
     50 CA         27.5270    0.4707  -11.1996 C.3       8 UNK         0.0235 
     51 CB         27.5628   -1.0413  -10.9225 C.3       8 UNK        -0.2000 
     52 C          28.9609    1.0385  -11.2478 C.2       8 UNK         0.4941 
     53 O          29.6988    0.6972  -12.1729 O.2       8 UNK        -0.5273 
     54 N          29.3338    1.8706  -10.2614 N.am      9 UNK        -0.4262 
     55 CA         30.6401    2.5071  -10.0654 C.3       9 UNK         0.0264 
     56 CB         30.9470    3.5035  -11.2040 C.3       9 UNK        -0.1955 
     57 C          31.7760    1.4962   -9.8215 C.2       9 UNK         0.5031 
     58 O          32.9117    1.7429  -10.2329 O.2       9 UNK        -0.5390 
     59 N          31.4596    0.3801   -9.1481 N.am      10 UNK        -0.4204 
     60 CA         32.4253   -0.6675   -8.8082 C.3       10 UNK         0.0237 
     61 CB         31.6757   -1.9673   -8.4852 C.3       10 UNK        -0.1985 
     62 C          33.3459   -0.2528   -7.6480 C.2       10 UNK         0.4970 
     63 O          34.5437   -0.5339   -7.6964 O.2       10 UNK        -0.4914 
     64 N          32.7725    0.4247   -6.6475 N.am      11 UNK        -0.4285 
     65 CA         33.4696    0.9843   -5.4789 C.3       11 UNK         0.1007 
     66 C          32.7009    2.1675   -4.8201 C.2       11 UNK         0.5703 
     67 N          31.7395    2.7901   -5.4945 N.am      11 UNK        -0.7361 
     68 O          32.9906    2.5507   -3.6892 O.2       11 UNK        -0.4986 
     69 C69        33.9547   -0.0986   -4.4702 C.3       12 UNK        -0.0947 
     70 S70        32.6280   -1.2044   -3.8831 S.3       12 UNK        -0.2240 
     71 C71        33.2846   -2.8242   -4.3856 C.3       12 UNK         0.0194 
     72 H72        31.4166   -0.2251   -1.2914 H         1 UNK         0.0906 
     73 H73        30.3982    0.8023   -0.2836 H         1 UNK         0.0906 
     74 H74        31.4745   -0.3807    0.4648 H         1 UNK         0.0906 
     75 H75        30.3303   -1.9227   -2.1947 H         1 UNK         0.3140 
     76 H76        29.0364   -3.5690   -2.6776 H         1 UNK         0.1085 
     77 H77        28.2402   -3.9691    0.2431 H         1 UNK         0.0836 
     78 H78        28.1479   -5.1512   -1.0309 H         1 UNK         0.0836 
     79 H79        29.9510   -6.8513   -1.5449 H         1 UNK         0.0731 
     80 H80        31.6587   -6.6727   -1.2189 H         1 UNK         0.0731 
     81 H81        32.7053   -4.3477   -2.1910 H         1 UNK         0.1312 
     82 H82        31.4697   -3.6193   -6.2217 H         1 UNK         0.1406 
     83 H83        29.2825   -6.3880   -3.7938 H         1 UNK         0.1631 
     84 H84        29.0428   -6.2779   -6.3780 H         1 UNK         0.0717 
     85 H85        29.6963   -4.8915   -7.2166 H         1 UNK         0.0717 
     86 H86        28.2301   -2.2138   -4.8264 H         1 UNK         0.0934 
     87 H87        29.3518   -2.5067   -6.1252 H         1 UNK         0.0934 
     88 H88        27.5717   -2.0567   -7.8044 H         1 UNK         0.0739 
     89 H89        25.8112   -1.9595   -5.5256 H         1 UNK         0.3093 
     90 H90        23.0098   -0.7724   -7.4603 H         1 UNK         0.0818 
     91 H91        22.0933   -2.7964   -6.3750 H         1 UNK         0.0819 
     92 H92        23.2365   -3.2613   -7.6228 H         1 UNK         0.0819 
     93 H93        23.7114   -3.3405   -5.9321 H         1 UNK         0.0819 
     94 H94        23.2430   -1.2275   -4.6628 H         1 UNK         0.3041 
     95 H95        24.1705    2.0725   -3.7104 H         1 UNK         0.0784 
     96 H96        21.7513    2.3090   -4.3083 H         1 UNK         0.0793 
     97 H97        21.4121    0.7449   -3.5807 H         1 UNK         0.0793 
     98 H98        21.9754    2.0864   -2.5826 H         1 UNK         0.0793 
     99 H99        23.3023    0.0771   -2.0204 H         1 UNK         0.3024 
    100 H100       25.4019   -0.3637   -0.5195 H         1 UNK         0.1171 
    101 H101       24.5375   -2.7394   -0.1930 H         1 UNK         0.0786 
    102 H102       23.3504   -1.6526   -0.8789 H         1 UNK         0.0786 
    103 H103       24.1751   -2.8067   -1.9149 H         1 UNK         0.0786 
    104 H104       27.3873   -1.3309   -0.5641 H         1 UNK         0.2977 
    105 H105       26.8113    0.3947   -5.3533 H         1 UNK         0.3127 
    106 H106       28.8898    2.2373   -6.0372 H         1 UNK         0.0770 
    107 H107       26.1201    2.7858   -4.8520 H         1 UNK         0.0814 
    108 H108       27.4873    3.8879   -4.8429 H         1 UNK         0.0814 
    109 H109       27.5670    2.3898   -3.9271 H         1 UNK         0.0814 
    110 H110       25.4685    1.9333   -7.1960 H         1 UNK         0.2983 
    111 H111       25.5863    4.0282   -9.1049 H         1 UNK         0.0947 
    112 H112       23.5259    2.9327  -10.0276 H         1 UNK         0.0806 
    113 H113       23.4519    3.0897   -8.2801 H         1 UNK         0.0806 
    114 H114       23.8149    1.5269   -9.0096 H         1 UNK         0.0806 
    115 H115       26.4233    0.5747   -9.3830 H         1 UNK         0.3000 
    116 H116       27.0823    0.6278  -12.1845 H         1 UNK         0.0850 
    117 H117       28.1173   -1.5680  -11.7002 H         1 UNK         0.0810 
    118 H118       26.5594   -1.4668  -10.8955 H         1 UNK         0.0810 
    119 H119       28.0488   -1.2623   -9.9727 H         1 UNK         0.0810 
    120 H120       28.6501    2.0903   -9.5461 H         1 UNK         0.3040 
    121 H121       30.5559    3.0847   -9.1441 H         1 UNK         0.0766 
    122 H122       31.1159    2.9951  -12.1537 H         1 UNK         0.0812 
    123 H123       31.8428    4.0854  -10.9840 H         1 UNK         0.0812 
    124 H124       30.1289    4.2106  -11.3420 H         1 UNK         0.0812 
    125 H125       30.5068    0.2608   -8.8099 H         1 UNK         0.3205 
    126 H126       33.0547   -0.8527   -9.6816 H         1 UNK         0.0754 
    127 H127       32.3749   -2.7722   -8.2551 H         1 UNK         0.0769 
    128 H128       31.0691   -2.2952   -9.3298 H         1 UNK         0.0769 
    129 H129       31.0145   -1.8412   -7.6292 H         1 UNK         0.0769 
    130 H130       31.7743    0.5716   -6.6666 H         1 UNK         0.2981 
    131 H131       34.3698    1.4653   -5.8655 H         1 UNK         0.0541 
    132 H132       31.5418    2.5697   -6.4548 H         1 UNK         0.3459 
    133 H133       31.2668    3.5611   -5.0502 H         1 UNK         0.3459 
    134 H134       34.4301    0.3599   -3.6017 H         1 UNK         0.0612 
    135 H135       34.7393   -0.6960   -4.9357 H         1 UNK         0.0612 
    136 H136       33.6207   -2.7796   -5.4231 H         1 UNK         0.0624 
    137 H137       34.1585   -3.0693   -3.7801 H         1 UNK         0.0624 
@<TRIPOS>BOND
     1    1    2 1    
     2    1   72 1    
     3    1   73 1    
     4    1   74 1    
     5    2    3 2    
     6    2    4 am   BACKBONE|DICT|INTERRES
     7    4    5 1    
     8    4   75 1    
     9    5    6 1    
    10    5   35 1    
    11    5   76 1    
    12    6    7 1    
    13    6   77 1    
    14    6   78 1    
    15    7    8 1    
    16    8    9 1    
    17    8   79 1    
    18    8   80 1    
    19    9   10 ar   
    20    9   14 ar   
    21   10   11 ar   
    22   10   81 1    
    23   11   12 ar   
    24   11   71 1    
    25   12   13 ar   
    26   12   82 1    
    27   13   14 ar   
    28   13   15 1    
    29   14   83 1    
    30   15   16 1    
    31   15   84 1    
    32   15   85 1    
    33   16   17 1    
    34   17   18 1    
    35   17   86 1    
    36   17   87 1    
    37   18   19 1    
    38   18   37 1    
    39   18   88 1    
    40   19   20 am   BACKBONE|DICT|INTERRES
    41   19   89 1    
    42   20   21 2    
    43   20   22 1    
    44   22   23 1    
    45   22   24 1    
    46   22   90 1    
    47   23   91 1    
    48   23   92 1    
    49   23   93 1    
    50   24   25 am   BACKBONE|DICT|INTERRES
    51   24   94 1    
    52   25   26 2    
    53   25   27 1    
    54   27   28 1    
    55   27   29 1    
    56   27   95 1    
    57   28   96 1    
    58   28   97 1    
    59   28   98 1    
    60   29   30 am   BACKBONE|DICT|INTERRES
    61   29   99 1    
    62   30   31 2    
    63   30   32 1    
    64   32   33 1    
    65   32   34 1    
    66   32  100 1    
    67   33  101 1    
    68   33  102 1    
    69   33  103 1    
    70   34   35 am   BACKBONE|DICT|INTERRES
    71   34  104 1    
    72   35   36 2    
    73   37   38 2    
    74   37   39 am   BACKBONE|DICT|INTERRES
    75   39   40 1    
    76   39  105 1    
    77   40   41 1    
    78   40   42 1    
    79   40  106 1    
    80   41  107 1    
    81   41  108 1    
    82   41  109 1    
    83   42   43 2    
    84   42   44 am   BACKBONE|DICT|INTERRES
    85   44   45 1    
    86   44  110 1    
    87   45   46 1    
    88   45   47 1    
    89   45  111 1    
    90   46  112 1    
    91   46  113 1    
    92   46  114 1    
    93   47   48 2    
    94   47   49 am   BACKBONE|DICT|INTERRES
    95   49   50 1    
    96   49  115 1    
    97   50   51 1    
    98   50   52 1    
    99   50  116 1    
   100   51  117 1    
   101   51  118 1    
   102   51  119 1    
   103   52   53 2    
   104   52   54 am   BACKBONE|DICT|INTERRES
   105   54   55 1    
   106   54  120 1    
   107   55   56 1    
   108   55   57 1    
   109   55  121 1    
   110   56  122 1    
   111   56  123 1    
   112   56  124 1    
   113   57   58 2    
   114   57   59 am   BACKBONE|DICT|INTERRES
   115   59   60 1    
   116   59  125 1    
   117   60   61 1    
   118   60   62 1    
   119   60  126 1    
   120   61  127 1    
   121   61  128 1    
   122   61  129 1    
   123   62   63 2    
   124   62   64 am   BACKBONE|DICT|INTERRES
   125   64   65 1    
   126   64  130 1    
   127   65   66 1    
   128   65   69 1    
   129   65  131 1    
   130   66   67 am   BACKBONE|DICT|INTERRES
   131   66   68 2    
   132   67  132 1    
   133   67  133 1    
   134   69   70 1    
   135   69  134 1    
   136   69  135 1    
   137   70   71 1    
   138   71  136 1    
   139   71  137 1    
@<TRIPOS>SUBSTRUCTURE
     1 UNK         1 GROUP             0       ****    0 ROOT    
