@<TRIPOS>MOLECULE
3R137
137   139    1
SMALL
USER_CHARGES


@<TRIPOS>ATOM
      1 CA         25.2512   -6.4007   -3.0281 C.3       0 UNK        -0.2020 
      2 C          25.3829   -5.2038   -2.0988 C.2       0 UNK         0.4855 
      3 O          24.4006   -4.4993   -1.8602 O.2       0 UNK        -0.5197 
      4 N          26.5907   -4.9674   -1.5716 N.am      1 UNK        -0.4892 
      5 CA         26.9378   -3.8434   -0.6958 C.3       1 UNK         0.0835 
      6 C6         28.3693   -3.9567   -0.0999 C.3       12 UNK        -0.0855 
      7 S7         29.6325   -4.6664   -1.2199 S.3       12 UNK        -0.2931 
      8 C8         31.0412   -3.5319   -1.0141 C.3       12 UNK         0.0378 
      9 C9         31.1429   -2.5539   -2.1734 C.ar      12 UNK        -0.0802 
     10 C10        31.7092   -2.9698   -3.3801 C.ar      12 UNK        -0.0944 
     11 C11        31.8407   -2.0803   -4.4483 C.ar      12 UNK        -0.0787 
     12 C12        31.3907   -0.7626   -4.3077 C.ar      12 UNK        -0.0862 
     13 C13        30.8155   -0.3318   -3.1056 C.ar      12 UNK        -0.0733 
     14 C14        30.7012   -1.2350   -2.0405 C.ar      12 UNK        -0.0832 
     15 C15        30.3551    1.1149   -2.9432 C.3       12 UNK         0.0240 
     16 S16        28.6604    1.2235   -2.2771 S.3       12 UNK        -0.2522 
     17 C17        27.7729    2.2972   -3.4583 C.3       12 UNK        -0.0967 
     18 CA         27.7373    1.7919   -4.9245 C.3       5 UNK         0.0660 
     19 N          27.5280    0.3483   -5.0463 N.am      5 UNK        -0.4015 
     20 C          27.6761   -0.3581   -6.1758 C.2       4 UNK         0.4946 
     21 O          28.0598    0.1231   -7.2458 O.2       4 UNK        -0.5353 
     22 CA         27.2885   -1.8433   -6.1040 C.3       4 UNK         0.0277 
     23 CB         28.4667   -2.6900   -5.5988 C.3       4 UNK        -0.1981 
     24 N          26.1141   -2.0585   -5.2520 N.am      4 UNK        -0.4209 
     25 C          24.8706   -1.6848   -5.5961 C.2       3 UNK         0.4942 
     26 O          24.5908   -1.1806   -6.6814 O.2       3 UNK        -0.5208 
     27 CA         23.7542   -1.8438   -4.5496 C.3       3 UNK         0.0250 
     28 CB         23.0925   -3.2242   -4.6704 C.3       3 UNK        -0.1990 
     29 N          24.2175   -1.6234   -3.1781 N.am      3 UNK        -0.4232 
     30 C          24.7054   -0.4542   -2.7336 C.2       2 UNK         0.4993 
     31 O          24.7481    0.5664   -3.4208 O.2       2 UNK        -0.5286 
     32 CA         25.2865   -0.4108   -1.3091 C.3       2 UNK         0.0209 
     33 CB         24.2536    0.1696   -0.3306 C.3       2 UNK        -0.1931 
     34 N          25.7641   -1.7008   -0.8002 N.am      2 UNK        -0.4546 
     35 C          26.6764   -2.4901   -1.3874 C.2       1 UNK         0.5154 
     36 O          27.2382   -2.2175   -2.4502 O.2       1 UNK        -0.5181 
     37 C          26.7065    2.5800   -5.7556 C.2       5 UNK         0.5014 
     38 O          27.0799    3.5229   -6.4529 O.2       5 UNK        -0.5248 
     39 N          25.4353    2.1600   -5.6866 N.am      6 UNK        -0.4434 
     40 CA         24.3354    2.7027   -6.4839 C.3       6 UNK         0.0363 
     41 CB         23.0009    2.1488   -5.9599 C.3       6 UNK        -0.1936 
     42 C          24.4881    2.4178   -7.9882 C.2       6 UNK         0.5081 
     43 O          24.1984    3.2999   -8.7971 O.2       6 UNK        -0.5248 
     44 N          24.9285    1.2000   -8.3378 N.am      7 UNK        -0.4718 
     45 CA         25.1184    0.7556   -9.7197 C.3       7 UNK         0.0273 
     46 CB         25.3262   -0.7669   -9.7614 C.3       7 UNK        -0.1935 
     47 C          26.2682    1.4696  -10.4448 C.2       7 UNK         0.5018 
     48 O          26.0861    1.8588  -11.6000 O.2       7 UNK        -0.5186 
     49 N          27.4247    1.6145   -9.7815 N.am      8 UNK        -0.4240 
     50 CA         28.6223    2.1999  -10.3935 C.3       8 UNK         0.0235 
     51 CB         29.3239    1.1597  -11.2911 C.3       8 UNK        -0.2000 
     52 C          29.6253    2.7826   -9.3915 C.2       8 UNK         0.4941 
     53 O          30.2936    3.7572   -9.7376 O.2       8 UNK        -0.5273 
     54 N          29.7699    2.1582   -8.2114 N.am      9 UNK        -0.4262 
     55 CA         30.8231    2.4195   -7.2152 C.3       9 UNK         0.0264 
     56 CB         30.7094    3.8379   -6.6141 C.3       9 UNK        -0.1955 
     57 C          32.2463    2.1005   -7.7202 C.2       9 UNK         0.5031 
     58 O          33.2204    2.6400   -7.1925 O.2       9 UNK        -0.5390 
     59 N          32.3396    1.2034   -8.7070 N.am      10 UNK        -0.4204 
     60 CA         33.5670    0.6281   -9.2383 C.3       10 UNK         0.0237 
     61 CB         33.8252    1.1703  -10.6541 C.3       10 UNK        -0.1985 
     62 C          33.3508   -0.8853   -9.2511 C.2       10 UNK         0.4970 
     63 O          32.3210   -1.3399   -9.7556 O.2       10 UNK        -0.4914 
     64 N          34.2922   -1.6256   -8.6617 N.am      11 UNK        -0.4285 
     65 CA         34.1805   -3.0751   -8.4346 C.3       11 UNK         0.1007 
     66 C          34.7094   -3.9511   -9.6070 C.2       11 UNK         0.5703 
     67 N          35.2596   -3.3788  -10.6715 N.am      11 UNK        -0.7361 
     68 O          34.6066   -5.1745   -9.5557 O.2       11 UNK        -0.4986 
     69 C69        34.8157   -3.4877   -7.0783 C.3       12 UNK        -0.0947 
     70 S70        34.2915   -2.4858   -5.6401 S.3       12 UNK        -0.2240 
     71 C71        32.4757   -2.5570   -5.7448 C.3       12 UNK         0.0194 
     72 H72        25.0868   -6.0678   -4.0522 H         1 UNK         0.0906 
     73 H73        26.1438   -7.0259   -3.0135 H         1 UNK         0.0906 
     74 H74        24.4035   -7.0166   -2.7290 H         1 UNK         0.0906 
     75 H75        27.3769   -5.5472   -1.8328 H         1 UNK         0.3140 
     76 H76        26.2488   -3.9056    0.1497 H         1 UNK         0.1085 
     77 H77        28.3327   -4.6118    0.7720 H         1 UNK         0.0836 
     78 H78        28.7039   -2.9923    0.2870 H         1 UNK         0.0836 
     79 H79        31.9564   -4.1242   -0.9666 H         1 UNK         0.0731 
     80 H80        30.9808   -3.0056   -0.0606 H         1 UNK         0.0731 
     81 H81        32.0573   -3.9885   -3.4849 H         1 UNK         0.1312 
     82 H82        31.5017   -0.0733   -5.1319 H         1 UNK         0.1406 
     83 H83        30.2653   -0.9091   -1.1061 H         1 UNK         0.1631 
     84 H84        30.4284    1.6548   -3.8865 H         1 UNK         0.0717 
     85 H85        31.0316    1.6209   -2.2534 H         1 UNK         0.0717 
     86 H86        26.7594    2.4092   -3.0674 H         1 UNK         0.0934 
     87 H87        28.2157    3.2942   -3.4181 H         1 UNK         0.0934 
     88 H88        28.7093    2.0013   -5.3625 H         1 UNK         0.0739 
     89 H89        27.2344   -0.1322   -4.2070 H         1 UNK         0.3093 
     90 H90        27.0436   -2.1737   -7.1154 H         1 UNK         0.0818 
     91 H91        28.7803   -2.3961   -4.5961 H         1 UNK         0.0819 
     92 H92        28.2133   -3.7497   -5.5710 H         1 UNK         0.0819 
     93 H93        29.3322   -2.5800   -6.2533 H         1 UNK         0.0819 
     94 H94        26.2902   -2.3982   -4.3121 H         1 UNK         0.3041 
     95 H95        22.9952   -1.0880   -4.7618 H         1 UNK         0.0784 
     96 H96        22.6582   -3.3604   -5.6618 H         1 UNK         0.0793 
     97 H97        23.8096   -4.0299   -4.5180 H         1 UNK         0.0793 
     98 H98        22.2889   -3.3471   -3.9439 H         1 UNK         0.0793 
     99 H99        24.2314   -2.4295   -2.5624 H         1 UNK         0.3024 
    100 H100       26.1424    0.2637   -1.3363 H         1 UNK         0.1171 
    101 H101       24.6820    0.3131    0.6616 H         1 UNK         0.0786 
    102 H102       23.8986    1.1438   -0.6706 H         1 UNK         0.0786 
    103 H103       23.3819   -0.4786   -0.2319 H         1 UNK         0.0786 
    104 H104       25.3287   -2.0248    0.0516 H         1 UNK         0.2977 
    105 H105       25.2000    1.4290   -5.0173 H         1 UNK         0.3127 
    106 H106       24.3305    3.7865   -6.3496 H         1 UNK         0.0770 
    107 H107       22.9458    1.0648   -6.0641 H         1 UNK         0.0814 
    108 H108       22.1599    2.5729   -6.5099 H         1 UNK         0.0814 
    109 H109       22.8565    2.3909   -4.9067 H         1 UNK         0.0814 
    110 H110       25.0630    0.4996   -7.6143 H         1 UNK         0.2983 
    111 H111       24.2004    0.9811  -10.2670 H         1 UNK         0.0947 
    112 H112       25.4828   -1.1135  -10.7839 H         1 UNK         0.0806 
    113 H113       24.4560   -1.2960   -9.3729 H         1 UNK         0.0806 
    114 H114       26.1942   -1.0719   -9.1764 H         1 UNK         0.0806 
    115 H115       27.4939    1.2660   -8.8307 H         1 UNK         0.3000 
    116 H116       28.3104    3.0376  -11.0220 H         1 UNK         0.0850 
    117 H117       30.2402    1.5656  -11.7228 H         1 UNK         0.0810 
    118 H118       28.6882    0.8551  -12.1224 H         1 UNK         0.0810 
    119 H119       29.5946    0.2628  -10.7325 H         1 UNK         0.0810 
    120 H120       29.1683    1.3646   -7.9952 H         1 UNK         0.3040 
    121 H121       30.6488    1.7064   -6.4116 H         1 UNK         0.0766 
    122 H122       29.6956    4.0559   -6.2822 H         1 UNK         0.0812 
    123 H123       30.9959    4.6062   -7.3326 H         1 UNK         0.0812 
    124 H124       31.3630    3.9479   -5.7480 H         1 UNK         0.0812 
    125 H125       31.4918    0.7669   -9.0433 H         1 UNK         0.3205 
    126 H126       34.4169    0.8717   -8.5970 H         1 UNK         0.0754 
    127 H127       34.7388    0.7476  -11.0739 H         1 UNK         0.0769 
    128 H128       33.9423    2.2542  -10.6445 H         1 UNK         0.0769 
    129 H129       33.0082    0.9303  -11.3362 H         1 UNK         0.0769 
    130 H130       35.1122   -1.1803   -8.2765 H         1 UNK         0.2981 
    131 H131       33.1204   -3.3255   -8.3703 H         1 UNK         0.0541 
    132 H132       35.3416   -2.3767  -10.7279 H         1 UNK         0.3459 
    133 H133       35.5930   -3.9574  -11.4264 H         1 UNK         0.3459 
    134 H134       34.5863   -4.5313   -6.8555 H         1 UNK         0.0612 
    135 H135       35.9036   -3.4241   -7.1392 H         1 UNK         0.0612 
    136 H136       32.1309   -1.9465   -6.5804 H         1 UNK         0.0624 
    137 H137       32.1614   -3.5808   -5.9537 H         1 UNK         0.0624 
@<TRIPOS>BOND
     1    1    2 1    
     2    1   72 1    
     3    1   73 1    
     4    1   74 1    
     5    2    3 2    
     6    2    4 am   BACKBONE|DICT|INTERRES
     7    4    5 1    
     8    4   75 1    
     9    5    6 1    
    10    5   35 1    
    11    5   76 1    
    12    6    7 1    
    13    6   77 1    
    14    6   78 1    
    15    7    8 1    
    16    8    9 1    
    17    8   79 1    
    18    8   80 1    
    19    9   10 ar   
    20    9   14 ar   
    21   10   11 ar   
    22   10   81 1    
    23   11   12 ar   
    24   11   71 1    
    25   12   13 ar   
    26   12   82 1    
    27   13   14 ar   
    28   13   15 1    
    29   14   83 1    
    30   15   16 1    
    31   15   84 1    
    32   15   85 1    
    33   16   17 1    
    34   17   18 1    
    35   17   86 1    
    36   17   87 1    
    37   18   19 1    
    38   18   37 1    
    39   18   88 1    
    40   19   20 am   BACKBONE|DICT|INTERRES
    41   19   89 1    
    42   20   21 2    
    43   20   22 1    
    44   22   23 1    
    45   22   24 1    
    46   22   90 1    
    47   23   91 1    
    48   23   92 1    
    49   23   93 1    
    50   24   25 am   BACKBONE|DICT|INTERRES
    51   24   94 1    
    52   25   26 2    
    53   25   27 1    
    54   27   28 1    
    55   27   29 1    
    56   27   95 1    
    57   28   96 1    
    58   28   97 1    
    59   28   98 1    
    60   29   30 am   BACKBONE|DICT|INTERRES
    61   29   99 1    
    62   30   31 2    
    63   30   32 1    
    64   32   33 1    
    65   32   34 1    
    66   32  100 1    
    67   33  101 1    
    68   33  102 1    
    69   33  103 1    
    70   34   35 am   BACKBONE|DICT|INTERRES
    71   34  104 1    
    72   35   36 2    
    73   37   38 2    
    74   37   39 am   BACKBONE|DICT|INTERRES
    75   39   40 1    
    76   39  105 1    
    77   40   41 1    
    78   40   42 1    
    79   40  106 1    
    80   41  107 1    
    81   41  108 1    
    82   41  109 1    
    83   42   43 2    
    84   42   44 am   BACKBONE|DICT|INTERRES
    85   44   45 1    
    86   44  110 1    
    87   45   46 1    
    88   45   47 1    
    89   45  111 1    
    90   46  112 1    
    91   46  113 1    
    92   46  114 1    
    93   47   48 2    
    94   47   49 am   BACKBONE|DICT|INTERRES
    95   49   50 1    
    96   49  115 1    
    97   50   51 1    
    98   50   52 1    
    99   50  116 1    
   100   51  117 1    
   101   51  118 1    
   102   51  119 1    
   103   52   53 2    
   104   52   54 am   BACKBONE|DICT|INTERRES
   105   54   55 1    
   106   54  120 1    
   107   55   56 1    
   108   55   57 1    
   109   55  121 1    
   110   56  122 1    
   111   56  123 1    
   112   56  124 1    
   113   57   58 2    
   114   57   59 am   BACKBONE|DICT|INTERRES
   115   59   60 1    
   116   59  125 1    
   117   60   61 1    
   118   60   62 1    
   119   60  126 1    
   120   61  127 1    
   121   61  128 1    
   122   61  129 1    
   123   62   63 2    
   124   62   64 am   BACKBONE|DICT|INTERRES
   125   64   65 1    
   126   64  130 1    
   127   65   66 1    
   128   65   69 1    
   129   65  131 1    
   130   66   67 am   BACKBONE|DICT|INTERRES
   131   66   68 2    
   132   67  132 1    
   133   67  133 1    
   134   69   70 1    
   135   69  134 1    
   136   69  135 1    
   137   70   71 1    
   138   71  136 1    
   139   71  137 1    
@<TRIPOS>SUBSTRUCTURE
     1 UNK         1 GROUP             0       ****    0 ROOT    
