@<TRIPOS>MOLECULE
3R137
137   139    1
SMALL
USER_CHARGES


@<TRIPOS>ATOM
      1 CA         25.2057   -6.7464   -1.7018 C.3       0 UNK        -0.2020 
      2 C          26.2360   -6.5801   -2.8170 C.2       0 UNK         0.4855 
      3 O          26.3806   -7.4832   -3.6390 O.2       0 UNK        -0.5197 
      4 N          26.9865   -5.4712   -2.8868 N.am      1 UNK        -0.4892 
      5 CA         26.9177   -4.2778   -2.0298 C.3       1 UNK         0.0835 
      6 C6         28.1201   -3.3287   -2.2668 C.3       12 UNK        -0.0855 
      7 S7         29.7412   -4.1587   -2.1251 S.3       12 UNK        -0.2931 
      8 C8         30.5979   -3.5445   -3.6233 C.3       12 UNK         0.0378 
      9 C9         30.8952   -2.0410   -3.6599 C.ar      12 UNK        -0.0802 
     10 C10        31.4027   -1.4891   -4.8416 C.ar      12 UNK        -0.0944 
     11 C11        31.6992   -0.1243   -4.9276 C.ar      12 UNK        -0.0787 
     12 C12        31.4589    0.7032   -3.8280 C.ar      12 UNK        -0.0862 
     13 C13        30.9263    0.1740   -2.6506 C.ar      12 UNK        -0.0733 
     14 C14        30.6788   -1.1969   -2.5626 C.ar      12 UNK        -0.0832 
     15 C15        30.5735    1.0830   -1.4830 C.3       12 UNK         0.0240 
     16 S16        29.1302    2.1379   -1.8484 S.3       12 UNK        -0.2522 
     17 C17        27.8677    0.9484   -2.4355 C.3       12 UNK        -0.0967 
     18 CA         27.7638    0.9083   -3.9841 C.3       5 UNK         0.0660 
     19 N          27.0161   -0.2519   -4.4759 N.am      5 UNK        -0.4015 
     20 C          27.1520   -0.7541   -5.7145 C.2       4 UNK         0.4946 
     21 O          28.0144   -0.3786   -6.5099 O.2       4 UNK        -0.5353 
     22 CA         26.1405   -1.8208   -6.1772 C.3       4 UNK         0.0277 
     23 CB         26.7327   -3.2353   -6.0821 C.3       4 UNK        -0.1981 
     24 N          24.8627   -1.7660   -5.4603 N.am      4 UNK        -0.4209 
     25 C          23.9636   -0.7826   -5.6195 C.2       3 UNK         0.4942 
     26 O          24.1049    0.1369   -6.4224 O.2       3 UNK        -0.5208 
     27 CA         22.7295   -0.7752   -4.6992 C.3       3 UNK         0.0250 
     28 CB         21.5601   -1.5152   -5.3664 C.3       3 UNK        -0.1990 
     29 N          22.9695   -1.3412   -3.3700 N.am      3 UNK        -0.4232 
     30 C          23.9105   -0.9362   -2.5056 C.2       2 UNK         0.4993 
     31 O          24.6817    0.0005   -2.7248 O.2       2 UNK        -0.5286 
     32 CA         24.0771   -1.7634   -1.2159 C.3       2 UNK         0.0209 
     33 CB         22.8340   -2.6068   -0.8497 C.3       2 UNK        -0.1931 
     34 N          25.2719   -2.6207   -1.2625 N.am      2 UNK        -0.4546 
     35 C          25.5957   -3.5021   -2.2226 C.2       1 UNK         0.5154 
     36 O          24.9178   -3.6900   -3.2369 O.2       1 UNK        -0.5181 
     37 C          27.1638    2.2031   -4.5636 C.2       5 UNK         0.5014 
     38 O          27.9146    3.0497   -5.0481 O.2       5 UNK        -0.5248 
     39 N          25.8256    2.3155   -4.5474 N.am      6 UNK        -0.4434 
     40 CA         25.0807    3.4527   -5.1013 C.3       6 UNK         0.0363 
     41 CB         23.5877    3.3095   -4.7662 C.3       6 UNK        -0.1936 
     42 C          25.2868    3.6344   -6.6169 C.2       6 UNK         0.5081 
     43 O          25.4772    4.7621   -7.0725 O.2       6 UNK        -0.5248 
     44 N          25.2766    2.5220   -7.3634 N.am      7 UNK        -0.4718 
     45 CA         25.5711    2.4735   -8.7987 C.3       7 UNK         0.0273 
     46 CB         25.0132    1.1622   -9.3765 C.3       7 UNK        -0.1935 
     47 C          27.0719    2.5953   -9.1233 C.2       7 UNK         0.5018 
     48 O          27.4047    2.8735  -10.2758 O.2       7 UNK        -0.5186 
     49 N          27.9337    2.3713   -8.1190 N.am      8 UNK        -0.4240 
     50 CA         29.3983    2.3303   -8.1703 C.3       8 UNK         0.0235 
     51 CB         29.9799    3.7316   -8.4484 C.3       8 UNK        -0.2000 
     52 C          29.9027    1.2591   -9.1538 C.2       8 UNK         0.4941 
     53 O          30.5197    1.5872  -10.1701 O.2       8 UNK        -0.5273 
     54 N          29.5897   -0.0065   -8.8463 N.am      9 UNK        -0.4262 
     55 CA         29.7868   -1.1929   -9.6881 C.3       9 UNK         0.0264 
     56 CB         28.9633   -2.3488   -9.0920 C.3       9 UNK        -0.1955 
     57 C          31.2585   -1.5961   -9.9423 C.2       9 UNK         0.5031 
     58 O          31.6417   -2.7306   -9.6508 O.2       9 UNK        -0.5390 
     59 N          32.0417   -0.6738  -10.5178 N.am      10 UNK        -0.4204 
     60 CA         33.3935   -0.8472  -11.0705 C.3       10 UNK         0.0237 
     61 CB         33.3306   -1.6905  -12.3624 C.3       10 UNK        -0.1985 
     62 C          34.4405   -1.3769  -10.0682 C.2       10 UNK         0.4970 
     63 O          35.3136   -2.1612  -10.4469 O.2       10 UNK        -0.4914 
     64 N          34.3414   -0.9344   -8.8103 N.am      11 UNK        -0.4285 
     65 CA         35.3025   -1.2297   -7.7389 C.3       11 UNK         0.1007 
     66 C          36.6781   -0.5289   -7.9341 C.2       11 UNK         0.5703 
     67 N          37.7251   -1.0354   -7.2960 N.am      11 UNK        -0.7361 
     68 O          36.8047    0.4743   -8.6352 O.2       11 UNK        -0.4986 
     69 C69        34.6902   -0.9602   -6.3387 C.3       12 UNK        -0.0947 
     70 S70        34.0493    0.7367   -6.1203 S.3       12 UNK        -0.2240 
     71 C71        32.2526    0.4705   -6.2129 C.3       12 UNK         0.0194 
     72 H72        24.9013   -7.7898   -1.6215 H         1 UNK         0.0906 
     73 H73        25.6047   -6.4509   -0.7326 H         1 UNK         0.0906 
     74 H74        24.3136   -6.1575   -1.9128 H         1 UNK         0.0906 
     75 H75        27.6705   -5.4142   -3.6263 H         1 UNK         0.3140 
     76 H76        26.9598   -4.6117   -0.9915 H         1 UNK         0.1085 
     77 H77        28.1062   -2.5191   -1.5353 H         1 UNK         0.0836 
     78 H78        28.0514   -2.8457   -3.2424 H         1 UNK         0.0836 
     79 H79        30.0041   -3.8148   -4.4981 H         1 UNK         0.0731 
     80 H80        31.5427   -4.0819   -3.7156 H         1 UNK         0.0731 
     81 H81        31.5702   -2.1269   -5.6990 H         1 UNK         0.1312 
     82 H82        31.6588    1.7639   -3.8971 H         1 UNK         0.1406 
     83 H83        30.2945   -1.5897   -1.6337 H         1 UNK         0.1631 
     84 H84        31.4279    1.7189   -1.2472 H         1 UNK         0.0717 
     85 H85        30.3672    0.5014   -0.5832 H         1 UNK         0.0717 
     86 H86        28.1081   -0.0412   -2.0472 H         1 UNK         0.0934 
     87 H87        26.9100    1.2135   -1.9847 H         1 UNK         0.0934 
     88 H88        28.7766    0.8250   -4.3804 H         1 UNK         0.0739 
     89 H89        26.2342   -0.5496   -3.9039 H         1 UNK         0.3093 
     90 H90        25.9399   -1.6212   -7.2320 H         1 UNK         0.0818 
     91 H91        27.7066   -3.2918   -6.5670 H         1 UNK         0.0819 
     92 H92        26.0860   -3.9650   -6.5696 H         1 UNK         0.0819 
     93 H93        26.8680   -3.5534   -5.0520 H         1 UNK         0.0819 
     94 H94        24.6943   -2.4840   -4.7594 H         1 UNK         0.3041 
     95 H95        22.4361    0.2661   -4.5562 H         1 UNK         0.0784 
     96 H96        21.3445   -1.0965   -6.3507 H         1 UNK         0.0793 
     97 H97        21.7787   -2.5751   -5.5036 H         1 UNK         0.0793 
     98 H98        20.6479   -1.4328   -4.7752 H         1 UNK         0.0793 
     99 H99        22.4218   -2.1519   -3.1204 H         1 UNK         0.3024 
    100 H100       24.2335   -1.0382   -0.4152 H         1 UNK         0.1171 
    101 H101       22.9512   -3.0613    0.1342 H         1 UNK         0.0786 
    102 H102       21.9351   -1.9898   -0.8078 H         1 UNK         0.0786 
    103 H103       22.6530   -3.4146   -1.5598 H         1 UNK         0.0786 
    104 H104       25.9060   -2.5081   -0.4832 H         1 UNK         0.2977 
    105 H105       25.2835    1.5798   -4.1092 H         1 UNK         0.3127 
    106 H106       25.4526    4.3537   -4.6088 H         1 UNK         0.0770 
    107 H107       23.1430    2.4466   -5.2614 H         1 UNK         0.0814 
    108 H108       23.0323    4.1898   -5.0923 H         1 UNK         0.0814 
    109 H109       23.4266    3.2037   -3.6932 H         1 UNK         0.0814 
    110 H110       25.0157    1.6400   -6.9242 H         1 UNK         0.2983 
    111 H111       25.0619    3.3083   -9.2853 H         1 UNK         0.0947 
    112 H112       25.1698    1.1104  -10.4548 H         1 UNK         0.0806 
    113 H113       23.9410    1.0749   -9.1999 H         1 UNK         0.0806 
    114 H114       25.4971    0.2906   -8.9337 H         1 UNK         0.0806 
    115 H115       27.5354    2.1617   -7.2135 H         1 UNK         0.3000 
    116 H116       29.7201    2.0292   -7.1733 H         1 UNK         0.0850 
    117 H117       31.0698    3.7140   -8.4117 H         1 UNK         0.0810 
    118 H118       29.6409    4.4528   -7.7046 H         1 UNK         0.0810 
    119 H119       29.6936    4.1045   -9.4323 H         1 UNK         0.0810 
    120 H120       29.0706   -0.1632   -7.9815 H         1 UNK         0.3040 
    121 H121       29.3608   -0.9648  -10.6673 H         1 UNK         0.0766 
    122 H122       27.9127   -2.0778   -8.9863 H         1 UNK         0.0812 
    123 H123       29.3401   -2.6334   -8.1093 H         1 UNK         0.0812 
    124 H124       29.0054   -3.2337   -9.7286 H         1 UNK         0.0812 
    125 H125       31.6236    0.2505  -10.6341 H         1 UNK         0.3205 
    126 H126       33.7329    0.1514  -11.3496 H         1 UNK         0.0754 
    127 H127       34.3002   -1.7221  -12.8611 H         1 UNK         0.0769 
    128 H128       32.6179   -1.2735  -13.0741 H         1 UNK         0.0769 
    129 H129       33.0353   -2.7201  -12.1565 H         1 UNK         0.0769 
    130 H130       33.6255   -0.2614   -8.5867 H         1 UNK         0.2981 
    131 H131       35.5021   -2.3019   -7.7921 H         1 UNK         0.0541 
    132 H132       38.6238   -0.5913   -7.4017 H         1 UNK         0.3459 
    133 H133       37.6363   -1.8528   -6.7126 H         1 UNK         0.3459 
    134 H134       33.8887   -1.6756   -6.1581 H         1 UNK         0.0612 
    135 H135       35.4234   -1.1506   -5.5532 H         1 UNK         0.0612 
    136 H136       31.7807    1.4352   -6.3959 H         1 UNK         0.0624 
    137 H137       32.0106   -0.1604   -7.0692 H         1 UNK         0.0624 
@<TRIPOS>BOND
     1    1    2 1    
     2    1   72 1    
     3    1   73 1    
     4    1   74 1    
     5    2    3 2    
     6    2    4 am   BACKBONE|DICT|INTERRES
     7    4    5 1    
     8    4   75 1    
     9    5    6 1    
    10    5   35 1    
    11    5   76 1    
    12    6    7 1    
    13    6   77 1    
    14    6   78 1    
    15    7    8 1    
    16    8    9 1    
    17    8   79 1    
    18    8   80 1    
    19    9   10 ar   
    20    9   14 ar   
    21   10   11 ar   
    22   10   81 1    
    23   11   12 ar   
    24   11   71 1    
    25   12   13 ar   
    26   12   82 1    
    27   13   14 ar   
    28   13   15 1    
    29   14   83 1    
    30   15   16 1    
    31   15   84 1    
    32   15   85 1    
    33   16   17 1    
    34   17   18 1    
    35   17   86 1    
    36   17   87 1    
    37   18   19 1    
    38   18   37 1    
    39   18   88 1    
    40   19   20 am   BACKBONE|DICT|INTERRES
    41   19   89 1    
    42   20   21 2    
    43   20   22 1    
    44   22   23 1    
    45   22   24 1    
    46   22   90 1    
    47   23   91 1    
    48   23   92 1    
    49   23   93 1    
    50   24   25 am   BACKBONE|DICT|INTERRES
    51   24   94 1    
    52   25   26 2    
    53   25   27 1    
    54   27   28 1    
    55   27   29 1    
    56   27   95 1    
    57   28   96 1    
    58   28   97 1    
    59   28   98 1    
    60   29   30 am   BACKBONE|DICT|INTERRES
    61   29   99 1    
    62   30   31 2    
    63   30   32 1    
    64   32   33 1    
    65   32   34 1    
    66   32  100 1    
    67   33  101 1    
    68   33  102 1    
    69   33  103 1    
    70   34   35 am   BACKBONE|DICT|INTERRES
    71   34  104 1    
    72   35   36 2    
    73   37   38 2    
    74   37   39 am   BACKBONE|DICT|INTERRES
    75   39   40 1    
    76   39  105 1    
    77   40   41 1    
    78   40   42 1    
    79   40  106 1    
    80   41  107 1    
    81   41  108 1    
    82   41  109 1    
    83   42   43 2    
    84   42   44 am   BACKBONE|DICT|INTERRES
    85   44   45 1    
    86   44  110 1    
    87   45   46 1    
    88   45   47 1    
    89   45  111 1    
    90   46  112 1    
    91   46  113 1    
    92   46  114 1    
    93   47   48 2    
    94   47   49 am   BACKBONE|DICT|INTERRES
    95   49   50 1    
    96   49  115 1    
    97   50   51 1    
    98   50   52 1    
    99   50  116 1    
   100   51  117 1    
   101   51  118 1    
   102   51  119 1    
   103   52   53 2    
   104   52   54 am   BACKBONE|DICT|INTERRES
   105   54   55 1    
   106   54  120 1    
   107   55   56 1    
   108   55   57 1    
   109   55  121 1    
   110   56  122 1    
   111   56  123 1    
   112   56  124 1    
   113   57   58 2    
   114   57   59 am   BACKBONE|DICT|INTERRES
   115   59   60 1    
   116   59  125 1    
   117   60   61 1    
   118   60   62 1    
   119   60  126 1    
   120   61  127 1    
   121   61  128 1    
   122   61  129 1    
   123   62   63 2    
   124   62   64 am   BACKBONE|DICT|INTERRES
   125   64   65 1    
   126   64  130 1    
   127   65   66 1    
   128   65   69 1    
   129   65  131 1    
   130   66   67 am   BACKBONE|DICT|INTERRES
   131   66   68 2    
   132   67  132 1    
   133   67  133 1    
   134   69   70 1    
   135   69  134 1    
   136   69  135 1    
   137   70   71 1    
   138   71  136 1    
   139   71  137 1    
@<TRIPOS>SUBSTRUCTURE
     1 UNK         1 GROUP             0       ****    0 ROOT    
