@<TRIPOS>MOLECULE
3R137
137   139    1
SMALL
USER_CHARGES


@<TRIPOS>ATOM
      1 CA         29.9575   -5.3656   -1.2251 C.3       0 UNK        -0.2020 
      2 C          29.0355   -4.4175   -0.4736 C.2       0 UNK         0.4855 
      3 O          28.3370   -4.8473    0.4444 O.2       0 UNK        -0.5197 
      4 N          29.0387   -3.1290   -0.8409 N.am      1 UNK        -0.4892 
      5 CA         28.2828   -2.0703   -0.1609 C.3       1 UNK         0.0835 
      6 C6         28.9582   -0.6810   -0.3364 C.3       12 UNK        -0.0855 
      7 S7         28.6110    0.1898   -1.9053 S.3       12 UNK        -0.2931 
      8 C8         30.2017    0.1403   -2.7973 C.3       12 UNK         0.0378 
      9 C9         30.5564   -1.2037   -3.4320 C.ar      12 UNK        -0.0802 
     10 C10        31.8989   -1.4757   -3.7077 C.ar      12 UNK        -0.0944 
     11 C11        32.2843   -2.6770   -4.3180 C.ar      12 UNK        -0.0787 
     12 C12        31.3005   -3.6200   -4.6266 C.ar      12 UNK        -0.0862 
     13 C13        29.9513   -3.3655   -4.3698 C.ar      12 UNK        -0.0733 
     14 C14        29.5851   -2.1463   -3.7886 C.ar      12 UNK        -0.0832 
     15 C15        28.9168   -4.4376   -4.6990 C.3       12 UNK         0.0240 
     16 S16        27.3435   -3.7813   -5.3268 S.3       12 UNK        -0.2522 
     17 C17        27.8416   -3.1491   -6.9601 C.3       12 UNK        -0.0967 
     18 CA         27.0602   -1.8943   -7.4207 C.3       5 UNK         0.0660 
     19 N          25.6249   -1.9841   -7.1481 N.am      5 UNK        -0.4015 
     20 C          24.6797   -1.3546   -7.8545 C.2       4 UNK         0.4946 
     21 O          24.9153   -0.6416   -8.8304 O.2       4 UNK        -0.5353 
     22 CA         23.2333   -1.5294   -7.3649 C.3       4 UNK         0.0277 
     23 CB         22.7043   -2.9335   -7.7009 C.3       4 UNK        -0.1981 
     24 N          23.0887   -1.2736   -5.9282 N.am      4 UNK        -0.4209 
     25 C          23.2826   -0.0759   -5.3587 C.2       3 UNK         0.4942 
     26 O          23.6073    0.9312   -5.9864 O.2       3 UNK        -0.5208 
     27 CA         23.0904    0.0286   -3.8357 C.3       3 UNK         0.0250 
     28 CB         21.6302    0.3788   -3.5072 C.3       3 UNK        -0.1990 
     29 N          23.4923   -1.1542   -3.0655 N.am      3 UNK        -0.4232 
     30 C          24.7235   -1.6831   -3.0428 C.2       2 UNK         0.4993 
     31 O          25.6337   -1.3346   -3.7977 O.2       2 UNK        -0.5286 
     32 CA         24.9606   -2.8049   -2.0189 C.3       2 UNK         0.0209 
     33 CB         24.6480   -4.1822   -2.6255 C.3       2 UNK        -0.1931 
     34 N          26.3452   -2.7831   -1.5396 N.am      2 UNK        -0.4546 
     35 C          26.7674   -2.0698   -0.4841 C.2       1 UNK         0.5154 
     36 O          26.0063   -1.4266    0.2421 O.2       1 UNK        -0.5181 
     37 C          27.6680   -0.5586   -6.9414 C.2       5 UNK         0.5014 
     38 O          28.6522   -0.1117   -7.5353 O.2       5 UNK        -0.5248 
     39 N          27.0441    0.1003   -5.9500 N.am      6 UNK        -0.4434 
     40 CA         27.3206    1.4953   -5.5906 C.3       6 UNK         0.0363 
     41 CB         26.5304    1.9013   -4.3350 C.3       6 UNK        -0.1936 
     42 C          26.9947    2.4546   -6.7477 C.2       6 UNK         0.5081 
     43 O          27.8423    3.2670   -7.1146 O.2       6 UNK        -0.5248 
     44 N          25.7918    2.3188   -7.3278 N.am      7 UNK        -0.4718 
     45 CA         25.3254    3.0972   -8.4806 C.3       7 UNK         0.0273 
     46 CB         23.8336    2.8199   -8.7238 C.3       7 UNK        -0.1935 
     47 C          26.1434    2.8397   -9.7573 C.2       7 UNK         0.5018 
     48 O          26.3769    3.7759  -10.5223 O.2       7 UNK        -0.5186 
     49 N          26.5986    1.5924   -9.9444 N.am      8 UNK        -0.4240 
     50 CA         27.5260    1.1960  -11.0098 C.3       8 UNK         0.0235 
     51 CB         27.5067   -0.3340  -11.1565 C.3       8 UNK        -0.2000 
     52 C          28.9719    1.6893  -10.7927 C.2       8 UNK         0.4941 
     53 O          29.7689    1.5989  -11.7273 O.2       8 UNK        -0.5273 
     54 N          29.2856    2.1844   -9.5846 N.am      9 UNK        -0.4262 
     55 CA         30.5883    2.6708   -9.1213 C.3       9 UNK         0.0264 
     56 CB         31.0039    3.9480   -9.8829 C.3       9 UNK        -0.1955 
     57 C          31.6671    1.5722   -9.1335 C.2       9 UNK         0.5031 
     58 O          32.7546    1.7797   -9.6776 O.2       9 UNK        -0.5390 
     59 N          31.3419    0.4156   -8.5391 N.am      10 UNK        -0.4204 
     60 CA         32.2612   -0.7109   -8.3589 C.3       10 UNK         0.0237 
     61 CB         31.4697   -1.9192   -7.8373 C.3       10 UNK        -0.1985 
     62 C          33.4252   -0.3747   -7.4058 C.2       10 UNK         0.4970 
     63 O          33.2335    0.3934   -6.4600 O.2       10 UNK        -0.4914 
     64 N          34.5874   -0.9884   -7.6771 N.am      11 UNK        -0.4285 
     65 CA         35.8758   -0.8464   -6.9720 C.3       11 UNK         0.1007 
     66 C          36.3092    0.6228   -6.6709 C.2       11 UNK         0.5703 
     67 N          36.9170    0.9046   -5.5256 N.am      11 UNK        -0.7361 
     68 O          36.1631    1.5043   -7.5156 O.2       11 UNK        -0.4986 
     69 C69        36.0703   -1.8805   -5.8194 C.3       12 UNK        -0.0947 
     70 S70        34.9535   -1.6789   -4.3903 S.3       12 UNK        -0.2240 
     71 C71        33.7316   -3.0038   -4.6935 C.3       12 UNK         0.0194 
     72 H72        30.5813   -4.8423   -1.9489 H         1 UNK         0.0906 
     73 H73        30.6178   -5.8754   -0.5242 H         1 UNK         0.0906 
     74 H74        29.3755   -6.1218   -1.7508 H         1 UNK         0.0906 
     75 H75        29.6234   -2.8236   -1.6082 H         1 UNK         0.3140 
     76 H76        28.3378   -2.2932    0.9076 H         1 UNK         0.1085 
     77 H77        30.0368   -0.7650   -0.1936 H         1 UNK         0.0836 
     78 H78        28.6181   -0.0221    0.4646 H         1 UNK         0.0836 
     79 H79        30.1650    0.8848   -3.5935 H         1 UNK         0.0731 
     80 H80        30.9934    0.4584   -2.1170 H         1 UNK         0.0731 
     81 H81        32.6364   -0.7267   -3.4592 H         1 UNK         0.1312 
     82 H82        31.5894   -4.5567   -5.0841 H         1 UNK         0.1406 
     83 H83        28.5392   -1.9339   -3.6123 H         1 UNK         0.1631 
     84 H84        28.7074   -5.0114   -3.7975 H         1 UNK         0.0717 
     85 H85        29.3117   -5.1450   -5.4300 H         1 UNK         0.0717 
     86 H86        28.9163   -2.9663   -6.9790 H         1 UNK         0.0934 
     87 H87        27.6747   -3.9558   -7.6756 H         1 UNK         0.0934 
     88 H88        27.1664   -1.8752   -8.5058 H         1 UNK         0.0739 
     89 H89        25.3666   -2.5209   -6.3319 H         1 UNK         0.3093 
     90 H90        22.6184   -0.8002   -7.8972 H         1 UNK         0.0818 
     91 H91        21.6478   -3.0289   -7.4495 H         1 UNK         0.0819 
     92 H92        22.8005   -3.1404   -8.7678 H         1 UNK         0.0819 
     93 H93        23.2476   -3.7144   -7.1674 H         1 UNK         0.0819 
     94 H94        22.8219   -2.0497   -5.3404 H         1 UNK         0.3041 
     95 H95        23.7159    0.8544   -3.4923 H         1 UNK         0.0784 
     96 H96        21.3115    1.2712   -4.0483 H         1 UNK         0.0793 
     97 H97        20.9491   -0.4282   -3.7804 H         1 UNK         0.0793 
     98 H98        21.4996    0.5850   -2.4447 H         1 UNK         0.0793 
     99 H99        22.7982   -1.5255   -2.4325 H         1 UNK         0.3024 
    100 H100       24.2873   -2.6500   -1.1725 H         1 UNK         0.1171 
    101 H101       25.2772   -4.4044   -3.4853 H         1 UNK         0.0786 
    102 H102       23.6113   -4.2373   -2.9597 H         1 UNK         0.0786 
    103 H103       24.7932   -4.9770   -1.8936 H         1 UNK         0.0786 
    104 H104       27.0338   -3.2428   -2.1158 H         1 UNK         0.2977 
    105 H105       26.3137   -0.3724   -5.4253 H         1 UNK         0.3127 
    106 H106       28.3866    1.5689   -5.3657 H         1 UNK         0.0770 
    107 H107       25.4800    2.0905   -4.5512 H         1 UNK         0.0814 
    108 H108       26.9377    2.8173   -3.9062 H         1 UNK         0.0814 
    109 H109       26.5687    1.1358   -3.5638 H         1 UNK         0.0814 
    110 H110       25.1291    1.6552   -6.9329 H         1 UNK         0.2983 
    111 H111       25.4382    4.1544   -8.2306 H         1 UNK         0.0947 
    112 H112       23.4592    3.4020   -9.5668 H         1 UNK         0.0806 
    113 H113       23.2346    3.0873   -7.8531 H         1 UNK         0.0806 
    114 H114       23.6488    1.7680   -8.9440 H         1 UNK         0.0806 
    115 H115       26.2783    0.8646   -9.3135 H         1 UNK         0.3000 
    116 H116       27.1684    1.6321  -11.9450 H         1 UNK         0.0850 
    117 H117       28.0430   -0.6425  -12.0548 H         1 UNK         0.0810 
    118 H118       26.4902   -0.7203  -11.2362 H         1 UNK         0.0810 
    119 H119       27.9929   -0.8207  -10.3121 H         1 UNK         0.0810 
    120 H120       28.5567    2.2038   -8.8808 H         1 UNK         0.3040 
    121 H121       30.4524    2.9466   -8.0744 H         1 UNK         0.0766 
    122 H122       31.9150    4.3734   -9.4606 H         1 UNK         0.0812 
    123 H123       30.2304    4.7136   -9.8224 H         1 UNK         0.0812 
    124 H124       31.1978    3.7486  -10.9372 H         1 UNK         0.0812 
    125 H125       30.4155    0.3176   -8.1270 H         1 UNK         0.3205 
    126 H126       32.6717   -0.9615   -9.3393 H         1 UNK         0.0754 
    127 H127       32.1140   -2.7890   -7.7051 H         1 UNK         0.0769 
    128 H128       30.6784   -2.2024   -8.5315 H         1 UNK         0.0769 
    129 H129       31.0098   -1.7018   -6.8721 H         1 UNK         0.0769 
    130 H130       34.6216   -1.5831   -8.4918 H         1 UNK         0.2981 
    131 H131       36.6012   -1.1441   -7.7299 H         1 UNK         0.0541 
    132 H132       37.0299    0.1943   -4.8194 H         1 UNK         0.3459 
    133 H133       37.2201    1.8490   -5.3470 H         1 UNK         0.3459 
    134 H134       37.0960   -1.8402   -5.4496 H         1 UNK         0.0612 
    135 H135       35.9631   -2.8905   -6.2169 H         1 UNK         0.0612 
    136 H136       33.7447   -3.2611   -5.7532 H         1 UNK         0.0624 
    137 H137       34.0503   -3.8959   -4.1530 H         1 UNK         0.0624 
@<TRIPOS>BOND
     1    1    2 1    
     2    1   72 1    
     3    1   73 1    
     4    1   74 1    
     5    2    3 2    
     6    2    4 am   BACKBONE|DICT|INTERRES
     7    4    5 1    
     8    4   75 1    
     9    5    6 1    
    10    5   35 1    
    11    5   76 1    
    12    6    7 1    
    13    6   77 1    
    14    6   78 1    
    15    7    8 1    
    16    8    9 1    
    17    8   79 1    
    18    8   80 1    
    19    9   10 ar   
    20    9   14 ar   
    21   10   11 ar   
    22   10   81 1    
    23   11   12 ar   
    24   11   71 1    
    25   12   13 ar   
    26   12   82 1    
    27   13   14 ar   
    28   13   15 1    
    29   14   83 1    
    30   15   16 1    
    31   15   84 1    
    32   15   85 1    
    33   16   17 1    
    34   17   18 1    
    35   17   86 1    
    36   17   87 1    
    37   18   19 1    
    38   18   37 1    
    39   18   88 1    
    40   19   20 am   BACKBONE|DICT|INTERRES
    41   19   89 1    
    42   20   21 2    
    43   20   22 1    
    44   22   23 1    
    45   22   24 1    
    46   22   90 1    
    47   23   91 1    
    48   23   92 1    
    49   23   93 1    
    50   24   25 am   BACKBONE|DICT|INTERRES
    51   24   94 1    
    52   25   26 2    
    53   25   27 1    
    54   27   28 1    
    55   27   29 1    
    56   27   95 1    
    57   28   96 1    
    58   28   97 1    
    59   28   98 1    
    60   29   30 am   BACKBONE|DICT|INTERRES
    61   29   99 1    
    62   30   31 2    
    63   30   32 1    
    64   32   33 1    
    65   32   34 1    
    66   32  100 1    
    67   33  101 1    
    68   33  102 1    
    69   33  103 1    
    70   34   35 am   BACKBONE|DICT|INTERRES
    71   34  104 1    
    72   35   36 2    
    73   37   38 2    
    74   37   39 am   BACKBONE|DICT|INTERRES
    75   39   40 1    
    76   39  105 1    
    77   40   41 1    
    78   40   42 1    
    79   40  106 1    
    80   41  107 1    
    81   41  108 1    
    82   41  109 1    
    83   42   43 2    
    84   42   44 am   BACKBONE|DICT|INTERRES
    85   44   45 1    
    86   44  110 1    
    87   45   46 1    
    88   45   47 1    
    89   45  111 1    
    90   46  112 1    
    91   46  113 1    
    92   46  114 1    
    93   47   48 2    
    94   47   49 am   BACKBONE|DICT|INTERRES
    95   49   50 1    
    96   49  115 1    
    97   50   51 1    
    98   50   52 1    
    99   50  116 1    
   100   51  117 1    
   101   51  118 1    
   102   51  119 1    
   103   52   53 2    
   104   52   54 am   BACKBONE|DICT|INTERRES
   105   54   55 1    
   106   54  120 1    
   107   55   56 1    
   108   55   57 1    
   109   55  121 1    
   110   56  122 1    
   111   56  123 1    
   112   56  124 1    
   113   57   58 2    
   114   57   59 am   BACKBONE|DICT|INTERRES
   115   59   60 1    
   116   59  125 1    
   117   60   61 1    
   118   60   62 1    
   119   60  126 1    
   120   61  127 1    
   121   61  128 1    
   122   61  129 1    
   123   62   63 2    
   124   62   64 am   BACKBONE|DICT|INTERRES
   125   64   65 1    
   126   64  130 1    
   127   65   66 1    
   128   65   69 1    
   129   65  131 1    
   130   66   67 am   BACKBONE|DICT|INTERRES
   131   66   68 2    
   132   67  132 1    
   133   67  133 1    
   134   69   70 1    
   135   69  134 1    
   136   69  135 1    
   137   70   71 1    
   138   71  136 1    
   139   71  137 1    
@<TRIPOS>SUBSTRUCTURE
     1 UNK         1 GROUP             0       ****    0 ROOT    
