@<TRIPOS>MOLECULE
3R137
137   139    1
SMALL
USER_CHARGES


@<TRIPOS>ATOM
      1 CA         26.9983   -6.3784   -5.7726 C.3       0 UNK        -0.2020 
      2 C          27.3050   -5.8801   -4.3689 C.2       0 UNK         0.4855 
      3 O          26.5490   -6.1715   -3.4409 O.2       0 UNK        -0.5197 
      4 N          28.4047   -5.1333   -4.1973 N.am      1 UNK        -0.4892 
      5 CA         28.8127   -4.5614   -2.9105 C.3       1 UNK         0.0835 
      6 C6         30.2679   -4.0362   -2.9321 C.3       12 UNK        -0.0855 
      7 S7         30.9048   -3.8047   -1.2323 S.3       12 UNK        -0.2931 
      8 C8         32.0384   -2.3862   -1.3935 C.3       12 UNK         0.0378 
      9 C9         31.3716   -1.1442   -1.9713 C.ar      12 UNK        -0.0802 
     10 C10        31.7954   -0.6443   -3.2049 C.ar      12 UNK        -0.0944 
     11 C11        31.1874    0.4830   -3.7621 C.ar      12 UNK        -0.0787 
     12 C12        30.1820    1.1434   -3.0536 C.ar      12 UNK        -0.0862 
     13 C13        29.7305    0.6418   -1.8304 C.ar      12 UNK        -0.0733 
     14 C14        30.3342   -0.4993   -1.2885 C.ar      12 UNK        -0.0832 
     15 C15        28.5748    1.3190   -1.1103 C.3       12 UNK         0.0240 
     16 S16        26.9671    0.7786   -1.7788 S.3       12 UNK        -0.2522 
     17 C17        26.6784    1.9335   -3.1595 C.3       12 UNK        -0.0967 
     18 CA         26.9448    1.3302   -4.5628 C.3       5 UNK         0.0660 
     19 N          26.1872    0.0906   -4.8179 N.am      5 UNK        -0.4015 
     20 C          26.2596   -0.6316   -5.9489 C.2       4 UNK         0.4946 
     21 O          26.9148   -0.2789   -6.9288 O.2       4 UNK        -0.5353 
     22 CA         25.4488   -1.9325   -6.0509 C.3       4 UNK         0.0277 
     23 CB         26.2347   -3.0254   -6.7982 C.3       4 UNK        -0.1981 
     24 N          25.0254   -2.4594   -4.7511 N.am      4 UNK        -0.4209 
     25 C          23.7673   -2.8193   -4.4520 C.2       3 UNK         0.4942 
     26 O          22.8076   -2.6063   -5.1944 O.2       3 UNK        -0.5208 
     27 CA         23.5109   -3.5749   -3.1329 C.3       3 UNK         0.0250 
     28 CB         23.0983   -5.0287   -3.4213 C.3       3 UNK        -0.1990 
     29 N          24.6642   -3.5870   -2.2341 N.am      3 UNK        -0.4232 
     30 C          24.9858   -2.5902   -1.3987 C.2       2 UNK         0.4993 
     31 O          24.2924   -1.5853   -1.2414 O.2       2 UNK        -0.5286 
     32 CA         26.3065   -2.7258   -0.6151 C.3       2 UNK         0.0209 
     33 CB         26.0314   -3.2051    0.8192 C.3       2 UNK        -0.1931 
     34 N          27.3007   -3.6110   -1.2330 N.am      2 UNK        -0.4546 
     35 C          27.8096   -3.4789   -2.4668 C.2       1 UNK         0.5154 
     36 O          27.4838   -2.5888   -3.2551 O.2       1 UNK        -0.5181 
     37 C          26.7440    2.4289   -5.6323 C.2       5 UNK         0.5014 
     38 O          27.6634    3.2096   -5.8853 O.2       5 UNK        -0.5248 
     39 N          25.5550    2.4574   -6.2517 N.am      6 UNK        -0.4434 
     40 CA         25.1788    3.3650   -7.3372 C.3       6 UNK         0.0363 
     41 CB         23.6615    3.2596   -7.5654 C.3       6 UNK        -0.1936 
     42 C          25.9393    3.1356   -8.6594 C.2       6 UNK         0.5081 
     43 O          25.8649    3.9974   -9.5360 O.2       6 UNK        -0.5248 
     44 N          26.6484    2.0041   -8.8017 N.am      7 UNK        -0.4718 
     45 CA         27.4481    1.6735   -9.9863 C.3       7 UNK         0.0273 
     46 CB         27.8454    0.1917   -9.9354 C.3       7 UNK        -0.1935 
     47 C          28.7007    2.5522  -10.1627 C.2       7 UNK         0.5018 
     48 O          29.1980    2.6344  -11.2857 O.2       7 UNK        -0.5186 
     49 N          29.1616    3.1894   -9.0721 N.am      8 UNK        -0.4240 
     50 CA         30.3115    4.0963   -8.9653 C.3       8 UNK         0.0235 
     51 CB         30.1142    5.3559   -9.8343 C.3       8 UNK        -0.2000 
     52 C          31.6397    3.3825   -9.2707 C.2       8 UNK         0.4941 
     53 O          32.0343    3.2674  -10.4325 O.2       8 UNK        -0.5273 
     54 N          32.2938    2.8854   -8.2126 N.am      9 UNK        -0.4262 
     55 CA         33.5508    2.1190   -8.1859 C.3       9 UNK         0.0264 
     56 CB         34.7217    2.8967   -8.8187 C.3       9 UNK        -0.1955 
     57 C          33.4361    0.7009   -8.7734 C.2       9 UNK         0.5031 
     58 O          33.9366   -0.2419   -8.1592 O.2       9 UNK        -0.5390 
     59 N          32.7370    0.5470   -9.9047 N.am      10 UNK        -0.4204 
     60 CA         32.4139   -0.7239  -10.5659 C.3       10 UNK         0.0237 
     61 CB         32.0808   -0.4361  -12.0418 C.3       10 UNK        -0.1985 
     62 C          31.2862   -1.5004   -9.8478 C.2       10 UNK         0.4970 
     63 O          30.3648   -1.9965  -10.4969 O.2       10 UNK        -0.4914 
     64 N          31.3727   -1.5740   -8.5173 N.am      11 UNK        -0.4285 
     65 CA         30.3553   -2.1126   -7.6031 C.3       11 UNK         0.1007 
     66 C          30.4232   -3.6556   -7.4025 C.2       11 UNK         0.5703 
     67 N          31.2727   -4.3864   -8.1139 N.am      11 UNK        -0.7361 
     68 O          29.6975   -4.2051   -6.5774 O.2       11 UNK        -0.4986 
     69 C69        30.3851   -1.3682   -6.2431 C.3       12 UNK        -0.0947 
     70 S70        30.3371    0.4557   -6.3906 S.3       12 UNK        -0.2240 
     71 C71        31.5787    0.9554   -5.1532 C.3       12 UNK         0.0194 
     72 H72        25.9559   -6.1815   -6.0217 H         1 UNK         0.0906 
     73 H73        27.6240   -5.8965   -6.5235 H         1 UNK         0.0906 
     74 H74        27.1635   -7.4540   -5.8308 H         1 UNK         0.0906 
     75 H75        28.9530   -4.8546   -5.0100 H         1 UNK         0.3140 
     76 H76        28.7719   -5.3823   -2.1904 H         1 UNK         0.1085 
     77 H77        30.3355   -3.1139   -3.5111 H         1 UNK         0.0836 
     78 H78        30.9195   -4.7544   -3.4324 H         1 UNK         0.0836 
     79 H79        32.8902   -2.6900   -2.0042 H         1 UNK         0.0731 
     80 H80        32.4417   -2.1454   -0.4090 H         1 UNK         0.0731 
     81 H81        32.5819   -1.1507   -3.7474 H         1 UNK         0.1312 
     82 H82        29.7186    2.0222   -3.4799 H         1 UNK         0.1406 
     83 H83        29.9886   -0.8974   -0.3440 H         1 UNK         0.1631 
     84 H84        28.6699    2.4040   -1.1693 H         1 UNK         0.0717 
     85 H85        28.6057    1.0729   -0.0478 H         1 UNK         0.0717 
     86 H86        27.2880    2.8260   -3.0051 H         1 UNK         0.0934 
     87 H87        25.6423    2.2702   -3.0873 H         1 UNK         0.0934 
     88 H88        27.9924    1.0394   -4.6200 H         1 UNK         0.0739 
     89 H89        25.6503   -0.2710   -4.0431 H         1 UNK         0.3093 
     90 H90        24.5780   -1.6787   -6.6582 H         1 UNK         0.0818 
     91 H91        26.5331   -2.6944   -7.7939 H         1 UNK         0.0819 
     92 H92        27.1429   -3.2956   -6.2592 H         1 UNK         0.0819 
     93 H93        25.6336   -3.9244   -6.9285 H         1 UNK         0.0819 
     94 H94        25.7759   -2.6242   -4.0823 H         1 UNK         0.3041 
     95 H95        22.6756   -3.0802   -2.6324 H         1 UNK         0.0784 
     96 H96        22.2044   -5.0661   -4.0455 H         1 UNK         0.0793 
     97 H97        23.8836   -5.5751   -3.9451 H         1 UNK         0.0793 
     98 H98        22.8709   -5.5673   -2.5012 H         1 UNK         0.0793 
     99 H99        25.2923   -4.3772   -2.3112 H         1 UNK         0.3024 
    100 H100       26.7526   -1.7333   -0.5584 H         1 UNK         0.1171 
    101 H101       26.9416   -3.2075    1.4194 H         1 UNK         0.0786 
    102 H102       25.3187   -2.5482    1.3202 H         1 UNK         0.0786 
    103 H103       25.6133   -4.2124    0.8352 H         1 UNK         0.0786 
    104 H104       27.6240   -4.3794   -0.6626 H         1 UNK         0.2977 
    105 H105       24.8676    1.7685   -5.9838 H         1 UNK         0.3127 
    106 H106       25.4058    4.3827   -7.0124 H         1 UNK         0.0770 
    107 H107       23.3700    2.2574   -7.8823 H         1 UNK         0.0814 
    108 H108       23.3332    3.9537   -8.3406 H         1 UNK         0.0814 
    109 H109       23.1043    3.5036   -6.6607 H         1 UNK         0.0814 
    110 H110       26.6695    1.3262   -8.0431 H         1 UNK         0.2983 
    111 H111       26.8193    1.8258  -10.8662 H         1 UNK         0.0947 
    112 H112       28.5130   -0.0094   -9.0975 H         1 UNK         0.0806 
    113 H113       28.3676   -0.1043  -10.8461 H         1 UNK         0.0806 
    114 H114       26.9744   -0.4558   -9.8340 H         1 UNK         0.0806 
    115 H115       28.6654    3.0180   -8.2062 H         1 UNK         0.3000 
    116 H116       30.3401    4.4276   -7.9258 H         1 UNK         0.0850 
    117 H117       30.9327    6.0611   -9.6851 H         1 UNK         0.0810 
    118 H118       29.1887    5.8718   -9.5787 H         1 UNK         0.0810 
    119 H119       30.0826    5.1211  -10.8987 H         1 UNK         0.0810 
    120 H120       31.8550    2.9990   -7.3096 H         1 UNK         0.3040 
    121 H121       33.7885    1.9943   -7.1284 H         1 UNK         0.0766 
    122 H122       34.8354    3.8811   -8.3648 H         1 UNK         0.0812 
    123 H123       34.5932    3.0350   -9.8925 H         1 UNK         0.0812 
    124 H124       35.6622    2.3631   -8.6748 H         1 UNK         0.0812 
    125 H125       32.3557    1.3943  -10.3211 H         1 UNK         0.3205 
    126 H126       33.3014   -1.3593  -10.5412 H         1 UNK         0.0754 
    127 H127       31.8955   -1.3596  -12.5922 H         1 UNK         0.0769 
    128 H128       32.9032    0.0760  -12.5416 H         1 UNK         0.0769 
    129 H129       31.1905    0.1878  -12.1369 H         1 UNK         0.0769 
    130 H130       32.1955   -1.1725   -8.0804 H         1 UNK         0.2981 
    131 H131       29.3758   -1.9265   -8.0458 H         1 UNK         0.0541 
    132 H132       31.8713   -3.9522   -8.7970 H         1 UNK         0.3459 
    133 H133       31.3055   -5.3828   -7.9698 H         1 UNK         0.3459 
    134 H134       29.5388   -1.6680   -5.6213 H         1 UNK         0.0612 
    135 H135       31.2842   -1.6596   -5.7007 H         1 UNK         0.0612 
    136 H136       31.6721    2.0419   -5.1580 H         1 UNK         0.0624 
    137 H137       32.5534    0.5570   -5.4392 H         1 UNK         0.0624 
@<TRIPOS>BOND
     1    1    2 1    
     2    1   72 1    
     3    1   73 1    
     4    1   74 1    
     5    2    3 2    
     6    2    4 am   BACKBONE|DICT|INTERRES
     7    4    5 1    
     8    4   75 1    
     9    5    6 1    
    10    5   35 1    
    11    5   76 1    
    12    6    7 1    
    13    6   77 1    
    14    6   78 1    
    15    7    8 1    
    16    8    9 1    
    17    8   79 1    
    18    8   80 1    
    19    9   10 ar   
    20    9   14 ar   
    21   10   11 ar   
    22   10   81 1    
    23   11   12 ar   
    24   11   71 1    
    25   12   13 ar   
    26   12   82 1    
    27   13   14 ar   
    28   13   15 1    
    29   14   83 1    
    30   15   16 1    
    31   15   84 1    
    32   15   85 1    
    33   16   17 1    
    34   17   18 1    
    35   17   86 1    
    36   17   87 1    
    37   18   19 1    
    38   18   37 1    
    39   18   88 1    
    40   19   20 am   BACKBONE|DICT|INTERRES
    41   19   89 1    
    42   20   21 2    
    43   20   22 1    
    44   22   23 1    
    45   22   24 1    
    46   22   90 1    
    47   23   91 1    
    48   23   92 1    
    49   23   93 1    
    50   24   25 am   BACKBONE|DICT|INTERRES
    51   24   94 1    
    52   25   26 2    
    53   25   27 1    
    54   27   28 1    
    55   27   29 1    
    56   27   95 1    
    57   28   96 1    
    58   28   97 1    
    59   28   98 1    
    60   29   30 am   BACKBONE|DICT|INTERRES
    61   29   99 1    
    62   30   31 2    
    63   30   32 1    
    64   32   33 1    
    65   32   34 1    
    66   32  100 1    
    67   33  101 1    
    68   33  102 1    
    69   33  103 1    
    70   34   35 am   BACKBONE|DICT|INTERRES
    71   34  104 1    
    72   35   36 2    
    73   37   38 2    
    74   37   39 am   BACKBONE|DICT|INTERRES
    75   39   40 1    
    76   39  105 1    
    77   40   41 1    
    78   40   42 1    
    79   40  106 1    
    80   41  107 1    
    81   41  108 1    
    82   41  109 1    
    83   42   43 2    
    84   42   44 am   BACKBONE|DICT|INTERRES
    85   44   45 1    
    86   44  110 1    
    87   45   46 1    
    88   45   47 1    
    89   45  111 1    
    90   46  112 1    
    91   46  113 1    
    92   46  114 1    
    93   47   48 2    
    94   47   49 am   BACKBONE|DICT|INTERRES
    95   49   50 1    
    96   49  115 1    
    97   50   51 1    
    98   50   52 1    
    99   50  116 1    
   100   51  117 1    
   101   51  118 1    
   102   51  119 1    
   103   52   53 2    
   104   52   54 am   BACKBONE|DICT|INTERRES
   105   54   55 1    
   106   54  120 1    
   107   55   56 1    
   108   55   57 1    
   109   55  121 1    
   110   56  122 1    
   111   56  123 1    
   112   56  124 1    
   113   57   58 2    
   114   57   59 am   BACKBONE|DICT|INTERRES
   115   59   60 1    
   116   59  125 1    
   117   60   61 1    
   118   60   62 1    
   119   60  126 1    
   120   61  127 1    
   121   61  128 1    
   122   61  129 1    
   123   62   63 2    
   124   62   64 am   BACKBONE|DICT|INTERRES
   125   64   65 1    
   126   64  130 1    
   127   65   66 1    
   128   65   69 1    
   129   65  131 1    
   130   66   67 am   BACKBONE|DICT|INTERRES
   131   66   68 2    
   132   67  132 1    
   133   67  133 1    
   134   69   70 1    
   135   69  134 1    
   136   69  135 1    
   137   70   71 1    
   138   71  136 1    
   139   71  137 1    
@<TRIPOS>SUBSTRUCTURE
     1 UNK         1 GROUP             0       ****    0 ROOT    
