@<TRIPOS>MOLECULE
3R137
137   139    1
SMALL
USER_CHARGES


@<TRIPOS>ATOM
      1 CA         27.8552   -5.8117    0.8126 C.3       0 UNK        -0.2020 
      2 C          27.8421   -4.2905    0.8005 C.2       0 UNK         0.4855 
      3 O          27.2533   -3.6763    1.6903 O.2       0 UNK        -0.5197 
      4 N          28.4901   -3.6803   -0.2005 N.am      1 UNK        -0.4892 
      5 CA         28.5723   -2.2246   -0.3856 C.3       1 UNK         0.0835 
      6 C6         29.6781   -1.8343   -1.3967 C.3       12 UNK        -0.0855 
      7 S7         31.3612   -2.2104   -0.7882 S.3       12 UNK        -0.2931 
      8 C8         31.7368   -3.8591   -1.4770 C.3       12 UNK         0.0378 
      9 C9         31.7482   -3.8794   -2.9992 C.ar      12 UNK        -0.0802 
     10 C10        32.8599   -3.4123   -3.7089 C.ar      12 UNK        -0.0944 
     11 C11        32.8690   -3.4361   -5.1077 C.ar      12 UNK        -0.0787 
     12 C12        31.7477   -3.9129   -5.7938 C.ar      12 UNK        -0.0862 
     13 C13        30.6253   -4.3671   -5.0964 C.ar      12 UNK        -0.0733 
     14 C14        30.6460   -4.3778   -3.6992 C.ar      12 UNK        -0.0832 
     15 C15        29.3740   -4.7922   -5.8572 C.3       12 UNK         0.0240 
     16 S16        27.8638   -3.9433   -5.2728 S.3       12 UNK        -0.2522 
     17 C17        28.3646   -2.1867   -5.2922 C.3       12 UNK        -0.0967 
     18 CA         27.7349   -1.3851   -6.4508 C.3       5 UNK         0.0660 
     19 N          26.2716   -1.4082   -6.4225 N.am      5 UNK        -0.4015 
     20 C          25.4871   -1.0692   -7.4536 C.2       4 UNK         0.4946 
     21 O          25.9183   -0.7276   -8.5539 O.2       4 UNK        -0.5353 
     22 CA         23.9687   -1.0672   -7.2066 C.3       4 UNK         0.0277 
     23 CB         23.3887   -2.4753   -7.4123 C.3       4 UNK        -0.1981 
     24 N          23.6106   -0.5757   -5.8733 N.am      4 UNK        -0.4209 
     25 C          23.8407    0.6729   -5.4405 C.2       3 UNK         0.4942 
     26 O          24.3087    1.5630   -6.1481 O.2       3 UNK        -0.5208 
     27 CA         23.5662    0.9613   -3.9536 C.3       3 UNK         0.0250 
     28 CB         22.1163    1.4303   -3.7548 C.3       3 UNK        -0.1990 
     29 N          23.8430   -0.1774   -3.0683 N.am      3 UNK        -0.4232 
     30 C          25.0322   -0.7862   -2.9521 C.2       2 UNK         0.4993 
     31 O          26.0301   -0.4597   -3.5988 O.2       2 UNK        -0.5286 
     32 CA         25.0771   -2.0139   -2.0260 C.3       2 UNK         0.0209 
     33 CB         24.4733   -3.2352   -2.7413 C.3       2 UNK        -0.1931 
     34 N          26.4289   -2.3641   -1.5824 N.am      2 UNK        -0.4546 
     35 C          27.2111   -1.6155   -0.7905 C.2       1 UNK         0.5154 
     36 O          26.8849   -0.5126   -0.3481 O.2       1 UNK        -0.5181 
     37 C          28.2783    0.0549   -6.4395 C.2       5 UNK         0.5014 
     38 O          29.3350    0.3070   -7.0206 O.2       5 UNK        -0.5248 
     39 N          27.5812    0.9766   -5.7639 N.am      6 UNK        -0.4434 
     40 CA         27.8990    2.4050   -5.7858 C.3       6 UNK         0.0363 
     41 CB         27.1397    3.1240   -4.6600 C.3       6 UNK        -0.1936 
     42 C          27.5932    3.0393   -7.1544 C.2       6 UNK         0.5081 
     43 O          28.3691    3.8727   -7.6199 O.2       6 UNK        -0.5248 
     44 N          26.4769    2.6304   -7.7715 N.am      7 UNK        -0.4718 
     45 CA         26.0154    3.1208   -9.0680 C.3       7 UNK         0.0273 
     46 CB         24.5087    2.8452   -9.2128 C.3       7 UNK        -0.1935 
     47 C          26.7972    2.5332  -10.2539 C.2       7 UNK         0.5018 
     48 O          27.3535    3.2985  -11.0424 O.2       7 UNK        -0.5186 
     49 N          26.7819    1.2000  -10.3951 N.am      8 UNK        -0.4240 
     50 CA         27.2718    0.5042  -11.5870 C.3       8 UNK         0.0235 
     51 CB         26.4455   -0.7715  -11.8266 C.3       8 UNK        -0.2000 
     52 C          28.7669    0.1786  -11.5058 C.2       8 UNK         0.4941 
     53 O          29.5019    0.5039  -12.4390 O.2       8 UNK        -0.5273 
     54 N          29.1917   -0.4713  -10.4118 N.am      9 UNK        -0.4262 
     55 CA         30.5853   -0.8939  -10.2174 C.3       9 UNK         0.0264 
     56 CB         30.6562   -2.0265   -9.1781 C.3       9 UNK        -0.1955 
     57 C          31.5178    0.2708   -9.8380 C.2       9 UNK         0.5031 
     58 O          32.7110    0.2033  -10.1353 O.2       9 UNK        -0.5390 
     59 N          30.9506    1.3089   -9.2055 N.am      10 UNK        -0.4204 
     60 CA         31.6022    2.5181   -8.6921 C.3       10 UNK         0.0237 
     61 CB         32.2209    3.3513   -9.8353 C.3       10 UNK        -0.1985 
     62 C          32.5877    2.2232   -7.5452 C.2       10 UNK         0.4970 
     63 O          33.6189    2.8899   -7.4364 O.2       10 UNK        -0.4914 
     64 N          32.2448    1.2418   -6.7029 N.am      11 UNK        -0.4285 
     65 CA         33.0505    0.8059   -5.5510 C.3       11 UNK         0.1007 
     66 C          32.2258    0.2823   -4.3453 C.2       11 UNK         0.5703 
     67 N          30.9030    0.2078   -4.4193 N.am      11 UNK        -0.7361 
     68 O          32.7961   -0.0082   -3.2978 O.2       11 UNK        -0.4986 
     69 C69        34.2280   -0.1286   -5.9482 C.3       12 UNK        -0.0947 
     70 S70        33.7473   -1.5623   -6.9725 S.3       12 UNK        -0.2240 
     71 C71        34.0961   -2.9833   -5.8867 C.3       12 UNK         0.0194 
     72 H72        28.3080   -6.1751    1.7348 H         1 UNK         0.0906 
     73 H73        26.8368   -6.1956    0.7592 H         1 UNK         0.0906 
     74 H74        28.4171   -6.2236   -0.0254 H         1 UNK         0.0906 
     75 H75        28.9686   -4.2386   -0.8899 H         1 UNK         0.3140 
     76 H76        28.8308   -1.7839    0.5803 H         1 UNK         0.1085 
     77 H77        29.5077   -2.2999   -2.3666 H         1 UNK         0.0836 
     78 H78        29.6512   -0.7580   -1.5785 H         1 UNK         0.0836 
     79 H79        32.7158   -4.1704   -1.1095 H         1 UNK         0.0731 
     80 H80        31.0293   -4.5901   -1.0853 H         1 UNK         0.0731 
     81 H81        33.7161   -3.0308   -3.1695 H         1 UNK         0.1312 
     82 H82        31.7477   -3.9129   -6.8752 H         1 UNK         0.1406 
     83 H83        29.7810   -4.7386   -3.1609 H         1 UNK         0.1631 
     84 H84        29.2401   -5.8694   -5.7521 H         1 UNK         0.0717 
     85 H85        29.4859   -4.5953   -6.9247 H         1 UNK         0.0717 
     86 H86        28.0911   -1.7564   -4.3286 H         1 UNK         0.0934 
     87 H87        29.4506   -2.1075   -5.3430 H         1 UNK         0.0934 
     88 H88        28.0561   -1.8430   -7.3885 H         1 UNK         0.0739 
     89 H89        25.8528   -1.6153   -5.5267 H         1 UNK         0.3093 
     90 H90        23.5161   -0.3993   -7.9425 H         1 UNK         0.0818 
     91 H91        22.3023   -2.4744   -7.3219 H         1 UNK         0.0819 
     92 H92        23.6283   -2.8525   -8.4076 H         1 UNK         0.0819 
     93 H93        23.7864   -3.1889   -6.6894 H         1 UNK         0.0819 
     94 H94        23.2086   -1.2408   -5.2294 H         1 UNK         0.3041 
     95 H95        24.2310    1.7739   -3.6537 H         1 UNK         0.0784 
     96 H96        21.8948    2.2902   -4.3890 H         1 UNK         0.0793 
     97 H97        21.3987    0.6478   -4.0047 H         1 UNK         0.0793 
     98 H98        21.9355    1.7366   -2.7243 H         1 UNK         0.0793 
     99 H99        23.0678   -0.5136   -2.5145 H         1 UNK         0.3024 
    100 H100       24.4845   -1.7903   -1.1360 H         1 UNK         0.1171 
    101 H101       23.4448   -3.0474   -3.0520 H         1 UNK         0.0786 
    102 H102       24.4529   -4.1072   -2.0871 H         1 UNK         0.0786 
    103 H103       25.0410   -3.5012   -3.6343 H         1 UNK         0.0786 
    104 H104       26.7892   -3.2522   -1.8968 H         1 UNK         0.2977 
    105 H105       26.7752    0.6813   -5.2234 H         1 UNK         0.3127 
    106 H106       28.9684    2.5209   -5.5960 H         1 UNK         0.0770 
    107 H107       26.0606    3.0853   -4.8078 H         1 UNK         0.0814 
    108 H108       27.4225    4.1763   -4.6134 H         1 UNK         0.0814 
    109 H109       27.3613    2.6839   -3.6875 H         1 UNK         0.0814 
    110 H110       25.8536    1.9999   -7.2752 H         1 UNK         0.2983 
    111 H111       26.1554    4.2041   -9.0899 H         1 UNK         0.0947 
    112 H112       24.1359    3.1981  -10.1753 H         1 UNK         0.0806 
    113 H113       23.9387    3.3568   -8.4371 H         1 UNK         0.0806 
    114 H114       24.2805    1.7810   -9.1425 H         1 UNK         0.0806 
    115 H115       26.3464    0.6208   -9.6778 H         1 UNK         0.3000 
    116 H116       27.1236    1.1495  -12.4562 H         1 UNK         0.0850 
    117 H117       26.7595   -1.2709  -12.7442 H         1 UNK         0.0810 
    118 H118       25.3849   -0.5417  -11.9300 H         1 UNK         0.0810 
    119 H119       26.5525   -1.4904  -11.0140 H         1 UNK         0.0810 
    120 H120       28.5244   -0.7008   -9.6888 H         1 UNK         0.3040 
    121 H121       30.9474   -1.3003  -11.1646 H         1 UNK         0.0766 
    122 H122       31.6637   -2.4421   -9.1374 H         1 UNK         0.0812 
    123 H123       29.9809   -2.8445   -9.4287 H         1 UNK         0.0812 
    124 H124       30.4158   -1.6845   -8.1731 H         1 UNK         0.0812 
    125 H125       29.9805    1.1983   -8.9377 H         1 UNK         0.3205 
    126 H126       30.8088    3.1192   -8.2487 H         1 UNK         0.0754 
    127 H127       32.5665    4.3191   -9.4702 H         1 UNK         0.0769 
    128 H128       31.4919    3.5447  -10.6224 H         1 UNK         0.0769 
    129 H129       33.0779    2.8501  -10.2862 H         1 UNK         0.0769 
    130 H130       31.3823    0.7369   -6.8673 H         1 UNK         0.2981 
    131 H131       33.5071    1.7089   -5.1413 H         1 UNK         0.0541 
    132 H132       30.4053    0.4508   -5.2627 H         1 UNK         0.3459 
    133 H133       30.4040   -0.1054   -3.6048 H         1 UNK         0.3459 
    134 H134       34.7764   -0.4613   -5.0659 H         1 UNK         0.0612 
    135 H135       34.9505    0.4439   -6.5314 H         1 UNK         0.0612 
    136 H136       34.4311   -3.8131   -6.5102 H         1 UNK         0.0624 
    137 H137       34.9285   -2.7548   -5.2199 H         1 UNK         0.0624 
@<TRIPOS>BOND
     1    1    2 1    
     2    1   72 1    
     3    1   73 1    
     4    1   74 1    
     5    2    3 2    
     6    2    4 am   BACKBONE|DICT|INTERRES
     7    4    5 1    
     8    4   75 1    
     9    5    6 1    
    10    5   35 1    
    11    5   76 1    
    12    6    7 1    
    13    6   77 1    
    14    6   78 1    
    15    7    8 1    
    16    8    9 1    
    17    8   79 1    
    18    8   80 1    
    19    9   10 ar   
    20    9   14 ar   
    21   10   11 ar   
    22   10   81 1    
    23   11   12 ar   
    24   11   71 1    
    25   12   13 ar   
    26   12   82 1    
    27   13   14 ar   
    28   13   15 1    
    29   14   83 1    
    30   15   16 1    
    31   15   84 1    
    32   15   85 1    
    33   16   17 1    
    34   17   18 1    
    35   17   86 1    
    36   17   87 1    
    37   18   19 1    
    38   18   37 1    
    39   18   88 1    
    40   19   20 am   BACKBONE|DICT|INTERRES
    41   19   89 1    
    42   20   21 2    
    43   20   22 1    
    44   22   23 1    
    45   22   24 1    
    46   22   90 1    
    47   23   91 1    
    48   23   92 1    
    49   23   93 1    
    50   24   25 am   BACKBONE|DICT|INTERRES
    51   24   94 1    
    52   25   26 2    
    53   25   27 1    
    54   27   28 1    
    55   27   29 1    
    56   27   95 1    
    57   28   96 1    
    58   28   97 1    
    59   28   98 1    
    60   29   30 am   BACKBONE|DICT|INTERRES
    61   29   99 1    
    62   30   31 2    
    63   30   32 1    
    64   32   33 1    
    65   32   34 1    
    66   32  100 1    
    67   33  101 1    
    68   33  102 1    
    69   33  103 1    
    70   34   35 am   BACKBONE|DICT|INTERRES
    71   34  104 1    
    72   35   36 2    
    73   37   38 2    
    74   37   39 am   BACKBONE|DICT|INTERRES
    75   39   40 1    
    76   39  105 1    
    77   40   41 1    
    78   40   42 1    
    79   40  106 1    
    80   41  107 1    
    81   41  108 1    
    82   41  109 1    
    83   42   43 2    
    84   42   44 am   BACKBONE|DICT|INTERRES
    85   44   45 1    
    86   44  110 1    
    87   45   46 1    
    88   45   47 1    
    89   45  111 1    
    90   46  112 1    
    91   46  113 1    
    92   46  114 1    
    93   47   48 2    
    94   47   49 am   BACKBONE|DICT|INTERRES
    95   49   50 1    
    96   49  115 1    
    97   50   51 1    
    98   50   52 1    
    99   50  116 1    
   100   51  117 1    
   101   51  118 1    
   102   51  119 1    
   103   52   53 2    
   104   52   54 am   BACKBONE|DICT|INTERRES
   105   54   55 1    
   106   54  120 1    
   107   55   56 1    
   108   55   57 1    
   109   55  121 1    
   110   56  122 1    
   111   56  123 1    
   112   56  124 1    
   113   57   58 2    
   114   57   59 am   BACKBONE|DICT|INTERRES
   115   59   60 1    
   116   59  125 1    
   117   60   61 1    
   118   60   62 1    
   119   60  126 1    
   120   61  127 1    
   121   61  128 1    
   122   61  129 1    
   123   62   63 2    
   124   62   64 am   BACKBONE|DICT|INTERRES
   125   64   65 1    
   126   64  130 1    
   127   65   66 1    
   128   65   69 1    
   129   65  131 1    
   130   66   67 am   BACKBONE|DICT|INTERRES
   131   66   68 2    
   132   67  132 1    
   133   67  133 1    
   134   69   70 1    
   135   69  134 1    
   136   69  135 1    
   137   70   71 1    
   138   71  136 1    
   139   71  137 1    
@<TRIPOS>SUBSTRUCTURE
     1 UNK         1 GROUP             0       ****    0 ROOT    
