@<TRIPOS>MOLECULE
3R137
137   139    1
SMALL
USER_CHARGES


@<TRIPOS>ATOM
      1 CA         24.3216   -5.7501   -5.0283 C.3       0 UNK        -0.2020 
      2 C          24.8407   -5.1292   -3.7406 C.2       0 UNK         0.4855 
      3 O          24.0639   -4.5424   -2.9869 O.2       0 UNK        -0.5197 
      4 N          26.1524   -5.2439   -3.4935 N.am      1 UNK        -0.4892 
      5 CA         26.8713   -4.7060   -2.3319 C.3       1 UNK         0.0835 
      6 C6         28.3571   -5.1364   -2.3821 C.3       12 UNK        -0.0855 
      7 S7         29.2656   -4.7945   -0.8371 S.3       12 UNK        -0.2931 
      8 C8         30.9386   -4.4456   -1.4724 C.3       12 UNK         0.0378 
      9 C9         31.0056   -3.1291   -2.2354 C.ar      12 UNK        -0.0802 
     10 C10        31.1210   -3.1199   -3.6294 C.ar      12 UNK        -0.0944 
     11 C11        31.1872   -1.9144   -4.3347 C.ar      12 UNK        -0.0787 
     12 C12        31.1601   -0.7112   -3.6202 C.ar      12 UNK        -0.0862 
     13 C13        31.0078   -0.7013   -2.2303 C.ar      12 UNK        -0.0733 
     14 C14        30.9467   -1.9168   -1.5434 C.ar      12 UNK        -0.0832 
     15 C15        30.8762    0.6094   -1.4564 C.3       12 UNK         0.0240 
     16 S16        29.8786    1.8944   -2.2967 S.3       12 UNK        -0.2522 
     17 C17        28.3771    0.9873   -2.8079 C.3       12 UNK        -0.0967 
     18 CA         28.2062    0.9853   -4.3531 C.3       5 UNK         0.0660 
     19 N          27.5934   -0.2495   -4.8465 N.am      5 UNK        -0.4015 
     20 C          27.4572   -0.5947   -6.1359 C.2       4 UNK         0.4946 
     21 O          27.9477    0.0305   -7.0768 O.2       4 UNK        -0.5353 
     22 CA         26.5715   -1.8180   -6.4299 C.3       4 UNK         0.0277 
     23 CB         27.3796   -3.1254   -6.3840 C.3       4 UNK        -0.1981 
     24 N          25.4371   -1.8985   -5.5051 N.am      4 UNK        -0.4209 
     25 C          24.3931   -1.0556   -5.5188 C.2       3 UNK         0.4942 
     26 O          24.2409   -0.1741   -6.3625 O.2       3 UNK        -0.5208 
     27 CA         23.3737   -1.1786   -4.3739 C.3       3 UNK         0.0250 
     28 CB         22.2636   -2.1788   -4.7306 C.3       3 UNK        -0.1990 
     29 N          24.0026   -1.5520   -3.1038 N.am      3 UNK        -0.4232 
     30 C          24.7868   -0.7244   -2.3953 C.2       2 UNK         0.4993 
     31 O          25.0106    0.4414   -2.7202 O.2       2 UNK        -0.5286 
     32 CA         25.4894   -1.3000   -1.1519 C.3       2 UNK         0.0209 
     33 CB         24.6036   -1.1341    0.0924 C.3       2 UNK        -0.1931 
     34 N          25.8765   -2.7073   -1.2955 N.am      2 UNK        -0.4546 
     35 C          26.7015   -3.1738   -2.2433 C.2       1 UNK         0.5154 
     36 O          27.2506   -2.4504   -3.0753 O.2       1 UNK        -0.5181 
     37 C          27.4435    2.2325   -4.8404 C.2       5 UNK         0.5014 
     38 O          28.0620    3.1382   -5.3997 O.2       5 UNK        -0.5248 
     39 N          26.1140    2.2408   -4.6549 N.am      6 UNK        -0.4434 
     40 CA         25.2115    3.3084   -5.0990 C.3       6 UNK         0.0363 
     41 CB         23.7934    3.0389   -4.5722 C.3       6 UNK        -0.1936 
     42 C          25.1961    3.4982   -6.6260 C.2       6 UNK         0.5081 
     43 O          25.1747    4.6371   -7.0933 O.2       6 UNK        -0.5248 
     44 N          25.2365    2.3876   -7.3748 N.am      7 UNK        -0.4718 
     45 CA         25.3604    2.3728   -8.8356 C.3       7 UNK         0.0273 
     46 CB         24.9880    0.9740   -9.3537 C.3       7 UNK        -0.1935 
     47 C          26.7617    2.7652   -9.3417 C.2       7 UNK         0.5018 
     48 O          26.8907    3.1048  -10.5186 O.2       7 UNK        -0.5186 
     49 N          27.7728    2.6898   -8.4619 N.am      8 UNK        -0.4240 
     50 CA         29.2058    2.8722   -8.7134 C.3       8 UNK         0.0235 
     51 CB         29.5219    4.3398   -9.0703 C.3       8 UNK        -0.2000 
     52 C          29.7309    1.8648   -9.7519 C.2       8 UNK         0.4941 
     53 O          30.3632    2.2565  -10.7362 O.2       8 UNK        -0.5273 
     54 N          29.4345    0.5775   -9.5255 N.am      9 UNK        -0.4262 
     55 CA         29.7221   -0.5493  -10.4208 C.3       9 UNK         0.0264 
     56 CB         28.8393   -1.7376   -9.9982 C.3       9 UNK        -0.1955 
     57 C          31.2197   -0.9239  -10.4882 C.2       9 UNK         0.5031 
     58 O          31.5799   -2.0719  -10.2153 O.2       9 UNK        -0.5390 
     59 N          32.0650    0.0545  -10.8421 N.am      10 UNK        -0.4204 
     60 CA         33.5330    0.0418  -10.9335 C.3       10 UNK         0.0237 
     61 CB         34.0377   -0.9833  -11.9691 C.3       10 UNK        -0.1985 
     62 C          34.2278   -0.1314   -9.5713 C.2       10 UNK         0.4970 
     63 O          35.0056    0.7388   -9.1777 O.2       10 UNK        -0.4914 
     64 N          33.9007   -1.2252   -8.8758 N.am      11 UNK        -0.4285 
     65 CA         34.3058   -1.5633   -7.5039 C.3       11 UNK         0.1007 
     66 C          35.8461   -1.7346   -7.3287 C.2       11 UNK         0.5703 
     67 N          36.3753   -1.6071   -6.1182 N.am      11 UNK        -0.7361 
     68 O          36.5680   -2.0443   -8.2755 O.2       11 UNK        -0.4986 
     69 C69        33.6366   -0.6370   -6.4418 C.3       12 UNK        -0.0947 
     70 S70        31.8361   -0.4507   -6.6844 S.3       12 UNK        -0.2240 
     71 C71        31.2112   -1.9551   -5.8630 C.3       12 UNK         0.0194 
     72 H72        24.1108   -4.9744   -5.7636 H         1 UNK         0.0906 
     73 H73        25.0403   -6.4446   -5.4628 H         1 UNK         0.0906 
     74 H74        23.3995   -6.2981   -4.8361 H         1 UNK         0.0906 
     75 H75        26.7295   -5.7295   -4.1653 H         1 UNK         0.3140 
     76 H76        26.4221   -5.1549   -1.4434 H         1 UNK         0.1085 
     77 H77        28.8561   -4.6641   -3.2290 H         1 UNK         0.0836 
     78 H78        28.4262   -6.2110   -2.5589 H         1 UNK         0.0836 
     79 H79        31.2674   -5.2761   -2.0993 H         1 UNK         0.0731 
     80 H80        31.6329   -4.4072   -0.6317 H         1 UNK         0.0731 
     81 H81        31.1407   -4.0561   -4.1704 H         1 UNK         0.1312 
     82 H82        31.2127    0.2307   -4.1442 H         1 UNK         0.1406 
     83 H83        30.8348   -1.9251   -0.4674 H         1 UNK         0.1631 
     84 H84        31.8740    1.0074   -1.2683 H         1 UNK         0.0717 
     85 H85        30.4275    0.4255   -0.4790 H         1 UNK         0.0717 
     86 H86        28.4385   -0.0345   -2.4320 H         1 UNK         0.0934 
     87 H87        27.5141    1.4210   -2.2989 H         1 UNK         0.0934 
     88 H88        29.1918    1.0218   -4.8199 H         1 UNK         0.0739 
     89 H89        27.2562   -0.9024   -4.1440 H         1 UNK         0.3093 
     90 H90        26.1746   -1.7043   -7.4409 H         1 UNK         0.0818 
     91 H91        26.7453   -3.9912   -6.5729 H         1 UNK         0.0819 
     92 H92        28.1573   -3.1276   -7.1466 H         1 UNK         0.0819 
     93 H93        27.8735   -3.2727   -5.4239 H         1 UNK         0.0819 
     94 H94        25.5253   -2.5452   -4.7348 H         1 UNK         0.3041 
     95 H95        22.9076   -0.1998   -4.2427 H         1 UNK         0.0784 
     96 H96        21.7516   -1.8794   -5.6462 H         1 UNK         0.0793 
     97 H97        22.6535   -3.1830   -4.8912 H         1 UNK         0.0793 
     98 H98        21.5120   -2.2339   -3.9430 H         1 UNK         0.0793 
     99 H99        23.8997   -2.5170   -2.8026 H         1 UNK         0.3024 
    100 H100       26.4034   -0.7217   -1.0009 H         1 UNK         0.1171 
    101 H101       25.1255   -1.4484    0.9964 H         1 UNK         0.0786 
    102 H102       24.3190   -0.0900    0.2316 H         1 UNK         0.0786 
    103 H103       23.6837   -1.7153    0.0148 H         1 UNK         0.0786 
    104 H104       25.4248   -3.3664   -0.6774 H         1 UNK         0.2977 
    105 H105       25.6918    1.4829   -4.1214 H         1 UNK         0.3127 
    106 H106       25.5675    4.2406   -4.6554 H         1 UNK         0.0770 
    107 H107       23.3815    2.1152   -4.9790 H         1 UNK         0.0814 
    108 H108       23.1151    3.8474   -4.8480 H         1 UNK         0.0814 
    109 H109       23.7810    2.9611   -3.4849 H         1 UNK         0.0814 
    110 H110       25.1595    1.4840   -6.9154 H         1 UNK         0.2983 
    111 H111       24.6504    3.0933   -9.2476 H         1 UNK         0.0947 
    112 H112       25.6687    0.2119   -8.9726 H         1 UNK         0.0806 
    113 H113       25.0308    0.9345  -10.4430 H         1 UNK         0.0806 
    114 H114       23.9757    0.6971   -9.0587 H         1 UNK         0.0806 
    115 H115       27.5442    2.3797   -7.5253 H         1 UNK         0.3000 
    116 H116       29.7134    2.6410   -7.7752 H         1 UNK         0.0850 
    117 H117       29.1573    5.0198   -8.3003 H         1 UNK         0.0810 
    118 H118       29.0724    4.6342  -10.0191 H         1 UNK         0.0810 
    119 H119       30.5978    4.4955   -9.1584 H         1 UNK         0.0810 
    120 H120       28.9309    0.3531   -8.6683 H         1 UNK         0.3040 
    121 H121       29.4238   -0.2591  -11.4303 H         1 UNK         0.0766 
    122 H122       28.9587   -2.5795  -10.6813 H         1 UNK         0.0812 
    123 H123       27.7825   -1.4695   -9.9940 H         1 UNK         0.0812 
    124 H124       29.1018   -2.0857   -8.9994 H         1 UNK         0.0812 
    125 H125       31.6313    0.9674  -10.9805 H         1 UNK         0.3205 
    126 H126       33.8089    1.0319  -11.3001 H         1 UNK         0.0754 
    127 H127       33.8010   -2.0091  -11.6857 H         1 UNK         0.0769 
    128 H128       35.1212   -0.9212  -12.0787 H         1 UNK         0.0769 
    129 H129       33.6016   -0.7994  -12.9509 H         1 UNK         0.0769 
    130 H130       33.2043   -1.8358   -9.2946 H         1 UNK         0.2981 
    131 H131       33.9114   -2.5669   -7.3459 H         1 UNK         0.0541 
    132 H132       37.3677   -1.7403   -6.0027 H         1 UNK         0.3459 
    133 H133       35.8043   -1.3753   -5.3213 H         1 UNK         0.3459 
    134 H134       33.8053   -1.0141   -5.4321 H         1 UNK         0.0612 
    135 H135       34.0813    0.3588   -6.4762 H         1 UNK         0.0612 
    136 H136       30.1906   -2.1170   -6.2079 H         1 UNK         0.0624 
    137 H137       31.7901   -2.8128   -6.2074 H         1 UNK         0.0624 
@<TRIPOS>BOND
     1    1    2 1    
     2    1   72 1    
     3    1   73 1    
     4    1   74 1    
     5    2    3 2    
     6    2    4 am   BACKBONE|DICT|INTERRES
     7    4    5 1    
     8    4   75 1    
     9    5    6 1    
    10    5   35 1    
    11    5   76 1    
    12    6    7 1    
    13    6   77 1    
    14    6   78 1    
    15    7    8 1    
    16    8    9 1    
    17    8   79 1    
    18    8   80 1    
    19    9   10 ar   
    20    9   14 ar   
    21   10   11 ar   
    22   10   81 1    
    23   11   12 ar   
    24   11   71 1    
    25   12   13 ar   
    26   12   82 1    
    27   13   14 ar   
    28   13   15 1    
    29   14   83 1    
    30   15   16 1    
    31   15   84 1    
    32   15   85 1    
    33   16   17 1    
    34   17   18 1    
    35   17   86 1    
    36   17   87 1    
    37   18   19 1    
    38   18   37 1    
    39   18   88 1    
    40   19   20 am   BACKBONE|DICT|INTERRES
    41   19   89 1    
    42   20   21 2    
    43   20   22 1    
    44   22   23 1    
    45   22   24 1    
    46   22   90 1    
    47   23   91 1    
    48   23   92 1    
    49   23   93 1    
    50   24   25 am   BACKBONE|DICT|INTERRES
    51   24   94 1    
    52   25   26 2    
    53   25   27 1    
    54   27   28 1    
    55   27   29 1    
    56   27   95 1    
    57   28   96 1    
    58   28   97 1    
    59   28   98 1    
    60   29   30 am   BACKBONE|DICT|INTERRES
    61   29   99 1    
    62   30   31 2    
    63   30   32 1    
    64   32   33 1    
    65   32   34 1    
    66   32  100 1    
    67   33  101 1    
    68   33  102 1    
    69   33  103 1    
    70   34   35 am   BACKBONE|DICT|INTERRES
    71   34  104 1    
    72   35   36 2    
    73   37   38 2    
    74   37   39 am   BACKBONE|DICT|INTERRES
    75   39   40 1    
    76   39  105 1    
    77   40   41 1    
    78   40   42 1    
    79   40  106 1    
    80   41  107 1    
    81   41  108 1    
    82   41  109 1    
    83   42   43 2    
    84   42   44 am   BACKBONE|DICT|INTERRES
    85   44   45 1    
    86   44  110 1    
    87   45   46 1    
    88   45   47 1    
    89   45  111 1    
    90   46  112 1    
    91   46  113 1    
    92   46  114 1    
    93   47   48 2    
    94   47   49 am   BACKBONE|DICT|INTERRES
    95   49   50 1    
    96   49  115 1    
    97   50   51 1    
    98   50   52 1    
    99   50  116 1    
   100   51  117 1    
   101   51  118 1    
   102   51  119 1    
   103   52   53 2    
   104   52   54 am   BACKBONE|DICT|INTERRES
   105   54   55 1    
   106   54  120 1    
   107   55   56 1    
   108   55   57 1    
   109   55  121 1    
   110   56  122 1    
   111   56  123 1    
   112   56  124 1    
   113   57   58 2    
   114   57   59 am   BACKBONE|DICT|INTERRES
   115   59   60 1    
   116   59  125 1    
   117   60   61 1    
   118   60   62 1    
   119   60  126 1    
   120   61  127 1    
   121   61  128 1    
   122   61  129 1    
   123   62   63 2    
   124   62   64 am   BACKBONE|DICT|INTERRES
   125   64   65 1    
   126   64  130 1    
   127   65   66 1    
   128   65   69 1    
   129   65  131 1    
   130   66   67 am   BACKBONE|DICT|INTERRES
   131   66   68 2    
   132   67  132 1    
   133   67  133 1    
   134   69   70 1    
   135   69  134 1    
   136   69  135 1    
   137   70   71 1    
   138   71  136 1    
   139   71  137 1    
@<TRIPOS>SUBSTRUCTURE
     1 UNK         1 GROUP             0       ****    0 ROOT    
