@<TRIPOS>MOLECULE
3R137
137   139    1
SMALL
USER_CHARGES


@<TRIPOS>ATOM
      1 CA         30.9463    0.6641    0.6379 C.3       0 UNK        -0.2020 
      2 C          30.6009   -0.6187   -0.1031 C.2       0 UNK         0.4855 
      3 O          31.4726   -1.2075   -0.7382 O.2       0 UNK        -0.5197 
      4 N          29.3389   -1.0481   -0.0238 N.am      1 UNK        -0.4892 
      5 CA         28.7537   -2.2100   -0.6918 C.3       1 UNK         0.0835 
      6 C6         29.1849   -3.5471   -0.0272 C.3       12 UNK        -0.0855 
      7 S7         28.6969   -5.0542   -0.9447 S.3       12 UNK        -0.2931 
      8 C8         30.2004   -5.4702   -1.8865 C.3       12 UNK         0.0378 
      9 C9         30.3007   -4.6487   -3.1627 C.ar      12 UNK        -0.0802 
     10 C10        31.0317   -3.4580   -3.1756 C.ar      12 UNK        -0.0944 
     11 C11        31.0997   -2.6670   -4.3258 C.ar      12 UNK        -0.0787 
     12 C12        30.4308   -3.1010   -5.4770 C.ar      12 UNK        -0.0862 
     13 C13        29.7373   -4.3137   -5.4991 C.ar      12 UNK        -0.0733 
     14 C14        29.6695   -5.0824   -4.3331 C.ar      12 UNK        -0.0832 
     15 C15        29.1128   -4.7979   -6.8044 C.3       12 UNK         0.0240 
     16 S16        27.3467   -5.2339   -6.6842 S.3       12 UNK        -0.2522 
     17 C17        26.5895   -3.7410   -5.9677 C.3       12 UNK        -0.0967 
     18 CA         26.3455   -2.5970   -6.9899 C.3       5 UNK         0.0660 
     19 N          25.0885   -1.8968   -6.7149 N.am      5 UNK        -0.4015 
     20 C          24.5119   -0.9842   -7.5084 C.2       4 UNK         0.4946 
     21 O          24.9540   -0.6434   -8.6052 O.2       4 UNK        -0.5353 
     22 CA         23.2370   -0.3157   -6.9668 C.3       4 UNK         0.0277 
     23 CB         22.0004   -1.1725   -7.2815 C.3       4 UNK        -0.1981 
     24 N          23.3004   -0.0497   -5.5257 N.am      4 UNK        -0.4209 
     25 C          24.1336    0.8389   -4.9667 C.2       3 UNK         0.4942 
     26 O          24.9261    1.5309   -5.6046 O.2       3 UNK        -0.5208 
     27 CA         24.1092    0.9479   -3.4333 C.3       3 UNK         0.0250 
     28 CB         22.8906    1.7608   -2.9662 C.3       3 UNK        -0.1990 
     29 N          24.1545   -0.3339   -2.7163 N.am      3 UNK        -0.4232 
     30 C          25.0810   -1.2863   -2.8918 C.2       2 UNK         0.4993 
     31 O          25.9076   -1.2873   -3.8061 O.2       2 UNK        -0.5286 
     32 CA         25.1067   -2.4394   -1.8786 C.3       2 UNK         0.0209 
     33 CB         24.4531   -3.7017   -2.4613 C.3       2 UNK        -0.1931 
     34 N          26.4988   -2.7283   -1.5302 N.am      2 UNK        -0.4546 
     35 C          27.2294   -1.9732   -0.7023 C.2       1 UNK         0.5154 
     36 O          26.7425   -1.0898    0.0134 O.2       1 UNK        -0.5181 
     37 C          27.5190   -1.6011   -7.0143 C.2       5 UNK         0.5014 
     38 O          28.2733   -1.5580   -7.9873 O.2       5 UNK        -0.5248 
     39 N          27.6147   -0.7955   -5.9480 N.am      6 UNK        -0.4434 
     40 CA         28.6052    0.2591   -5.7569 C.3       6 UNK         0.0363 
     41 CB         28.4182    0.8707   -4.3598 C.3       6 UNK        -0.1936 
     42 C          28.5543    1.3315   -6.8549 C.2       6 UNK         0.5081 
     43 O          29.6060    1.7170   -7.3637 O.2       6 UNK        -0.5248 
     44 N          27.3420    1.7581   -7.2368 N.am      7 UNK        -0.4718 
     45 CA         27.1070    2.6903   -8.3410 C.3       7 UNK         0.0273 
     46 CB         25.6312    3.1187   -8.3577 C.3       7 UNK        -0.1935 
     47 C          27.5216    2.1210   -9.7078 C.2       7 UNK         0.5018 
     48 O          28.1610    2.8340  -10.4817 O.2       7 UNK        -0.5186 
     49 N          27.1663    0.8558   -9.9777 N.am      8 UNK        -0.4240 
     50 CA         27.4932    0.1566  -11.2234 C.3       8 UNK         0.0235 
     51 CB         26.6988   -1.1567  -11.3095 C.3       8 UNK        -0.2000 
     52 C          28.9977   -0.1093  -11.3896 C.2       8 UNK         0.4941 
     53 O          29.5351    0.1211  -12.4737 O.2       8 UNK        -0.5273 
     54 N          29.6484   -0.5874  -10.3210 N.am      9 UNK        -0.4262 
     55 CA         31.0767   -0.9157  -10.3070 C.3       9 UNK         0.0264 
     56 CB         31.3276   -1.9611   -9.2139 C.3       9 UNK        -0.1955 
     57 C          31.9976    0.3035  -10.1088 C.2       9 UNK         0.5031 
     58 O          33.2006    0.1725  -10.3394 O.2       9 UNK        -0.5390 
     59 N          31.4322    1.4459   -9.6901 N.am      10 UNK        -0.4204 
     60 CA         32.0995    2.7091   -9.3542 C.3       10 UNK         0.0237 
     61 CB         32.8195    3.3154  -10.5787 C.3       10 UNK        -0.1985 
     62 C          33.0036    2.5647   -8.1152 C.2       10 UNK         0.4970 
     63 O          34.2070    2.8242   -8.1829 O.2       10 UNK        -0.4914 
     64 N          32.3875    2.1560   -7.0037 N.am      11 UNK        -0.4285 
     65 CA         33.0002    1.9940   -5.6787 C.3       11 UNK         0.1007 
     66 C          32.0441    2.4771   -4.5525 C.2       11 UNK         0.5703 
     67 N          32.2812    2.1038   -3.3019 N.am      11 UNK        -0.7361 
     68 O          31.1113    3.2419   -4.7896 O.2       11 UNK        -0.4986 
     69 C69        33.6300    0.5836   -5.4691 C.3       12 UNK        -0.0947 
     70 S70        32.5465   -0.8198   -5.8991 S.3       12 UNK        -0.2240 
     71 C71        31.8868   -1.3530   -4.2812 C.3       12 UNK         0.0194 
     72 H72        30.0798    1.0901    1.1434 H         1 UNK         0.0906 
     73 H73        31.7138    0.4689    1.3864 H         1 UNK         0.0906 
     74 H74        31.3319    1.4073   -0.0592 H         1 UNK         0.0906 
     75 H75        28.6399   -0.5067    0.4749 H         1 UNK         0.3140 
     76 H76        29.0855   -2.1954   -1.7312 H         1 UNK         0.1085 
     77 H77        30.2678   -3.5646    0.1021 H         1 UNK         0.0836 
     78 H78        28.7728   -3.6136    0.9814 H         1 UNK         0.0836 
     79 H79        31.0862   -5.3330   -1.2643 H         1 UNK         0.0731 
     80 H80        30.1719   -6.5315   -2.1381 H         1 UNK         0.0731 
     81 H81        31.5393   -3.1404   -2.2768 H         1 UNK         0.1312 
     82 H82        30.4573   -2.5030   -6.3730 H         1 UNK         0.1406 
     83 H83        29.1234   -6.0161   -4.3376 H         1 UNK         0.1631 
     84 H84        29.6611   -5.6781   -7.1421 H         1 UNK         0.0717 
     85 H85        29.2315   -4.0538   -7.5928 H         1 UNK         0.0717 
     86 H86        25.6329   -4.0833   -5.5722 H         1 UNK         0.0934 
     87 H87        27.1523   -3.4140   -5.0907 H         1 UNK         0.0934 
     88 H88        26.2522   -3.0248   -7.9906 H         1 UNK         0.0739 
     89 H89        24.6884   -2.0459   -5.8006 H         1 UNK         0.3093 
     90 H90        23.1262    0.6421   -7.4802 H         1 UNK         0.0818 
     91 H91        21.0816   -0.6683   -6.9813 H         1 UNK         0.0819 
     92 H92        21.9250   -1.3675   -8.3524 H         1 UNK         0.0819 
     93 H93        22.0346   -2.1386   -6.7763 H         1 UNK         0.0819 
     94 H94        22.6807   -0.5760   -4.9267 H         1 UNK         0.3041 
     95 H95        25.0067    1.4984   -3.1435 H         1 UNK         0.0784 
     96 H96        22.8422    2.7223   -3.4798 H         1 UNK         0.0793 
     97 H97        21.9537    1.2385   -3.1633 H         1 UNK         0.0793 
     98 H98        22.9395    1.9709   -1.8976 H         1 UNK         0.0793 
     99 H99        23.5037   -0.4338   -1.9503 H         1 UNK         0.3024 
    100 H100       24.5631   -2.1448   -0.9778 H         1 UNK         0.1171 
    101 H101       24.4305   -4.5069   -1.7266 H         1 UNK         0.0786 
    102 H102       24.9877   -4.0682   -3.3368 H         1 UNK         0.0786 
    103 H103       23.4224   -3.5083   -2.7613 H         1 UNK         0.0786 
    104 H104       26.9689   -3.4350   -2.0786 H         1 UNK         0.2977 
    105 H105       26.9441   -0.9227   -5.1888 H         1 UNK         0.3127 
    106 H106       29.5909   -0.2042   -5.8012 H         1 UNK         0.0770 
    107 H107       27.4211    1.2948   -4.2371 H         1 UNK         0.0814 
    108 H108       29.1347    1.6696   -4.1777 H         1 UNK         0.0814 
    109 H109       28.5611    0.1229   -3.5793 H         1 UNK         0.0814 
    110 H110       26.5228    1.4359   -6.7277 H         1 UNK         0.2983 
    111 H111       27.7159    3.5783   -8.1577 H         1 UNK         0.0947 
    112 H112       25.4349    3.8173   -9.1721 H         1 UNK         0.0806 
    113 H113       25.3541    3.6179   -7.4290 H         1 UNK         0.0806 
    114 H114       24.9647    2.2654   -8.4892 H         1 UNK         0.0806 
    115 H115       26.6087    0.3438   -9.3001 H         1 UNK         0.3000 
    116 H116       27.1794    0.7939  -12.0530 H         1 UNK         0.0850 
    117 H117       26.9307   -1.6963  -12.2287 H         1 UNK         0.0810 
    118 H118       25.6249   -0.9695  -11.3059 H         1 UNK         0.0810 
    119 H119       26.9235   -1.8205  -10.4735 H         1 UNK         0.0810 
    120 H120       29.1210   -0.7956   -9.4734 H         1 UNK         0.3040 
    121 H121       31.3413   -1.3656  -11.2663 H         1 UNK         0.0766 
    122 H122       32.3796   -2.2457   -9.1663 H         1 UNK         0.0812 
    123 H123       31.0498   -1.5623   -8.2415 H         1 UNK         0.0812 
    124 H124       30.7480   -2.8680   -9.3857 H         1 UNK         0.0812 
    125 H125       30.4459    1.4145   -9.4626 H         1 UNK         0.3205 
    126 H126       31.3041    3.4016   -9.0737 H         1 UNK         0.0754 
    127 H127       33.2088    4.3073  -10.3464 H         1 UNK         0.0769 
    128 H128       32.1391    3.4232  -11.4235 H         1 UNK         0.0769 
    129 H129       33.6635    2.7062  -10.9030 H         1 UNK         0.0769 
    130 H130       31.3804    1.9999   -7.0347 H         1 UNK         0.2981 
    131 H131       33.8206    2.7112   -5.6186 H         1 UNK         0.0541 
    132 H132       33.0572    1.5048   -3.0717 H         1 UNK         0.3459 
    133 H133       31.6775    2.4467   -2.5727 H         1 UNK         0.3459 
    134 H134       34.0199    0.4561   -4.4589 H         1 UNK         0.0612 
    135 H135       34.5041    0.5014   -6.1165 H         1 UNK         0.0612 
    136 H136       32.7214   -1.4536   -3.5857 H         1 UNK         0.0624 
    137 H137       31.2394   -0.5713   -3.8829 H         1 UNK         0.0624 
@<TRIPOS>BOND
     1    1    2 1    
     2    1   72 1    
     3    1   73 1    
     4    1   74 1    
     5    2    3 2    
     6    2    4 am   BACKBONE|DICT|INTERRES
     7    4    5 1    
     8    4   75 1    
     9    5    6 1    
    10    5   35 1    
    11    5   76 1    
    12    6    7 1    
    13    6   77 1    
    14    6   78 1    
    15    7    8 1    
    16    8    9 1    
    17    8   79 1    
    18    8   80 1    
    19    9   10 ar   
    20    9   14 ar   
    21   10   11 ar   
    22   10   81 1    
    23   11   12 ar   
    24   11   71 1    
    25   12   13 ar   
    26   12   82 1    
    27   13   14 ar   
    28   13   15 1    
    29   14   83 1    
    30   15   16 1    
    31   15   84 1    
    32   15   85 1    
    33   16   17 1    
    34   17   18 1    
    35   17   86 1    
    36   17   87 1    
    37   18   19 1    
    38   18   37 1    
    39   18   88 1    
    40   19   20 am   BACKBONE|DICT|INTERRES
    41   19   89 1    
    42   20   21 2    
    43   20   22 1    
    44   22   23 1    
    45   22   24 1    
    46   22   90 1    
    47   23   91 1    
    48   23   92 1    
    49   23   93 1    
    50   24   25 am   BACKBONE|DICT|INTERRES
    51   24   94 1    
    52   25   26 2    
    53   25   27 1    
    54   27   28 1    
    55   27   29 1    
    56   27   95 1    
    57   28   96 1    
    58   28   97 1    
    59   28   98 1    
    60   29   30 am   BACKBONE|DICT|INTERRES
    61   29   99 1    
    62   30   31 2    
    63   30   32 1    
    64   32   33 1    
    65   32   34 1    
    66   32  100 1    
    67   33  101 1    
    68   33  102 1    
    69   33  103 1    
    70   34   35 am   BACKBONE|DICT|INTERRES
    71   34  104 1    
    72   35   36 2    
    73   37   38 2    
    74   37   39 am   BACKBONE|DICT|INTERRES
    75   39   40 1    
    76   39  105 1    
    77   40   41 1    
    78   40   42 1    
    79   40  106 1    
    80   41  107 1    
    81   41  108 1    
    82   41  109 1    
    83   42   43 2    
    84   42   44 am   BACKBONE|DICT|INTERRES
    85   44   45 1    
    86   44  110 1    
    87   45   46 1    
    88   45   47 1    
    89   45  111 1    
    90   46  112 1    
    91   46  113 1    
    92   46  114 1    
    93   47   48 2    
    94   47   49 am   BACKBONE|DICT|INTERRES
    95   49   50 1    
    96   49  115 1    
    97   50   51 1    
    98   50   52 1    
    99   50  116 1    
   100   51  117 1    
   101   51  118 1    
   102   51  119 1    
   103   52   53 2    
   104   52   54 am   BACKBONE|DICT|INTERRES
   105   54   55 1    
   106   54  120 1    
   107   55   56 1    
   108   55   57 1    
   109   55  121 1    
   110   56  122 1    
   111   56  123 1    
   112   56  124 1    
   113   57   58 2    
   114   57   59 am   BACKBONE|DICT|INTERRES
   115   59   60 1    
   116   59  125 1    
   117   60   61 1    
   118   60   62 1    
   119   60  126 1    
   120   61  127 1    
   121   61  128 1    
   122   61  129 1    
   123   62   63 2    
   124   62   64 am   BACKBONE|DICT|INTERRES
   125   64   65 1    
   126   64  130 1    
   127   65   66 1    
   128   65   69 1    
   129   65  131 1    
   130   66   67 am   BACKBONE|DICT|INTERRES
   131   66   68 2    
   132   67  132 1    
   133   67  133 1    
   134   69   70 1    
   135   69  134 1    
   136   69  135 1    
   137   70   71 1    
   138   71  136 1    
   139   71  137 1    
@<TRIPOS>SUBSTRUCTURE
     1 UNK         1 GROUP             0       ****    0 ROOT    
