@<TRIPOS>MOLECULE
3R137
137   139    1
SMALL
USER_CHARGES


@<TRIPOS>ATOM
      1 CA         25.3595   -7.2272   -0.0162 C.3       0 UNK        -0.2020 
      2 C          25.9663   -5.8326    0.0252 C.2       0 UNK         0.4855 
      3 O          26.2651   -5.3265    1.1077 O.2       0 UNK        -0.5197 
      4 N          26.1603   -5.2132   -1.1455 N.am      1 UNK        -0.4892 
      5 CA         26.6809   -3.8499   -1.2984 C.3       1 UNK         0.0835 
      6 C6         27.0980   -3.5573   -2.7615 C.3       12 UNK        -0.0855 
      7 S7         28.3975   -4.6889   -3.3617 S.3       12 UNK        -0.2931 
      8 C8         29.9176   -3.7959   -2.9093 C.3       12 UNK         0.0378 
      9 C9         30.1973   -2.6279   -3.8437 C.ar      12 UNK        -0.0802 
     10 C10        30.8625   -2.8423   -5.0547 C.ar      12 UNK        -0.0944 
     11 C11        31.1664   -1.7700   -5.8993 C.ar      12 UNK        -0.0787 
     12 C12        30.7798   -0.4774   -5.5341 C.ar      12 UNK        -0.0862 
     13 C13        30.1017   -0.2533   -4.3313 C.ar      12 UNK        -0.0733 
     14 C14        29.8223   -1.3297   -3.4861 C.ar      12 UNK        -0.0832 
     15 C15        29.6994    1.1566   -3.9314 C.3       12 UNK         0.0240 
     16 S16        28.3123    1.7726   -4.9308 S.3       12 UNK        -0.2522 
     17 C17        26.8556    0.9077   -4.2380 C.3       12 UNK        -0.0967 
     18 CA         26.1642   -0.0920   -5.2077 C.3       5 UNK         0.0660 
     19 N          25.0529   -0.7885   -4.5416 N.am      5 UNK        -0.4015 
     20 C          24.4564   -1.9113   -4.9787 C.2       4 UNK         0.4946 
     21 O          24.8826   -2.5602   -5.9365 O.2       4 UNK        -0.5353 
     22 CA         23.1708   -2.3958   -4.2754 C.3       4 UNK         0.0277 
     23 CB         23.2032   -3.9080   -3.9865 C.3       4 UNK        -0.1981 
     24 N          22.8687   -1.6695   -3.0402 N.am      4 UNK        -0.4209 
     25 C          22.1847   -0.5167   -2.9794 C.2       3 UNK         0.4942 
     26 O          21.6903    0.0324   -3.9642 O.2       3 UNK        -0.5208 
     27 CA         22.0471    0.1628   -1.6019 C.3       3 UNK         0.0250 
     28 CB         20.6716   -0.1439   -0.9878 C.3       3 UNK        -0.1990 
     29 N          23.0939   -0.2025   -0.6420 N.am      3 UNK        -0.4232 
     30 C          24.4059    0.0146   -0.8088 C.2       2 UNK         0.4993 
     31 O          24.8799    0.5832   -1.7922 O.2       2 UNK        -0.5286 
     32 CA         25.3622   -0.5521    0.2579 C.3       2 UNK         0.0209 
     33 CB         24.6683   -0.9409    1.5841 C.3       2 UNK        -0.1931 
     34 N          26.1401   -1.6862   -0.2632 N.am      2 UNK        -0.4546 
     35 C          25.6502   -2.8094   -0.8121 C.2       1 UNK         0.5154 
     36 O          24.4451   -3.0255   -0.9719 O.2       1 UNK        -0.5181 
     37 C          25.6847    0.5522   -6.5363 C.2       5 UNK         0.5014 
     38 O          25.6047    1.7764   -6.6512 O.2       5 UNK        -0.5248 
     39 N          25.3503   -0.2948   -7.5165 N.am      6 UNK        -0.4434 
     40 CA         25.0202    0.0927   -8.8893 C.3       6 UNK         0.0363 
     41 CB         24.0069   -0.9090   -9.4662 C.3       6 UNK        -0.1936 
     42 C          26.2770    0.1549   -9.7729 C.2       6 UNK         0.5081 
     43 O          26.3040    0.9223  -10.7348 O.2       6 UNK        -0.5248 
     44 N          27.2910   -0.6556   -9.4344 N.am      7 UNK        -0.4718 
     45 CA         28.5764   -0.7382  -10.1327 C.3       7 UNK         0.0273 
     46 CB         29.2914   -2.0237   -9.6926 C.3       7 UNK        -0.1935 
     47 C          29.4647    0.4990   -9.9106 C.2       7 UNK         0.5018 
     48 O          30.1943    0.8834  -10.8265 O.2       7 UNK        -0.5186 
     49 N          29.3575    1.1017   -8.7145 N.am      8 UNK        -0.4240 
     50 CA         29.9250    2.3879   -8.2922 C.3       8 UNK         0.0235 
     51 CB         29.0031    3.5309   -8.7715 C.3       8 UNK        -0.2000 
     52 C          31.4034    2.5723   -8.6809 C.2       8 UNK         0.4941 
     53 O          32.2698    1.9336   -8.0801 O.2       8 UNK        -0.5273 
     54 N          31.6538    3.4144   -9.6945 N.am      9 UNK        -0.4262 
     55 CA         32.9659    3.7725  -10.2396 C.3       9 UNK         0.0264 
     56 CB         32.7759    4.7848  -11.3809 C.3       9 UNK        -0.1955 
     57 C          33.8270    2.5881  -10.7132 C.2       9 UNK         0.5031 
     58 O          35.0496    2.7327  -10.7569 O.2       9 UNK        -0.5390 
     59 N          33.2103    1.4320  -11.0061 N.am      10 UNK        -0.4204 
     60 CA         33.9076    0.1740  -11.2992 C.3       10 UNK         0.0237 
     61 CB         32.8814   -0.8988  -11.6917 C.3       10 UNK        -0.1985 
     62 C          34.7897   -0.3320  -10.1392 C.2       10 UNK         0.4970 
     63 O          35.7681   -1.0331  -10.4003 O.2       10 UNK        -0.4914 
     64 N          34.4465    0.0459   -8.9005 N.am      11 UNK        -0.4285 
     65 CA         35.2398   -0.2010   -7.6876 C.3       11 UNK         0.1007 
     66 C          36.0892    1.0315   -7.2560 C.2       11 UNK         0.5703 
     67 N          36.1921    2.0938   -8.0479 N.am      11 UNK        -0.7361 
     68 O          36.6945    1.0194   -6.1866 O.2       11 UNK        -0.4986 
     69 C69        34.3496   -0.7352   -6.5345 C.3       12 UNK        -0.0947 
     70 S70        33.6699   -2.3842   -6.9162 S.3       12 UNK        -0.2240 
     71 C71        31.9133   -2.0143   -7.2026 C.3       12 UNK         0.0194 
     72 H72        26.0386   -7.9459    0.4419 H         1 UNK         0.0906 
     73 H73        24.4210   -7.2438    0.5373 H         1 UNK         0.0906 
     74 H74        25.1572   -7.5543   -1.0359 H         1 UNK         0.0906 
     75 H75        25.8999   -5.6769   -2.0037 H         1 UNK         0.3140 
     76 H76        27.5655   -3.7641   -0.6632 H         1 UNK         0.1085 
     77 H77        26.2445   -3.6662   -3.4301 H         1 UNK         0.0836 
     78 H78        27.4277   -2.5254   -2.8792 H         1 UNK         0.0836 
     79 H79        30.7549   -4.4947   -2.9434 H         1 UNK         0.0731 
     80 H80        29.8523   -3.4570   -1.8743 H         1 UNK         0.0731 
     81 H81        31.1608   -3.8440   -5.3333 H         1 UNK         0.1312 
     82 H82        31.0129    0.3569   -6.1816 H         1 UNK         0.1406 
     83 H83        29.3210   -1.1541   -2.5446 H         1 UNK         0.1631 
     84 H84        30.5524    1.8219   -4.0729 H         1 UNK         0.0717 
     85 H85        29.4429    1.2133   -2.8724 H         1 UNK         0.0717 
     86 H86        27.1558    0.3862   -3.3282 H         1 UNK         0.0934 
     87 H87        26.1433    1.6706   -3.9183 H         1 UNK         0.0934 
     88 H88        26.9117   -0.8439   -5.4712 H         1 UNK         0.0739 
     89 H89        24.6653   -0.3154   -3.7331 H         1 UNK         0.3093 
     90 H90        22.3595   -2.2266   -4.9866 H         1 UNK         0.0818 
     91 H91        23.9905   -4.1769   -3.2848 H         1 UNK         0.0819 
     92 H92        22.2565   -4.2477   -3.5664 H         1 UNK         0.0819 
     93 H93        23.3714   -4.4812   -4.8992 H         1 UNK         0.0819 
     94 H94        23.2654   -2.0549   -2.1861 H         1 UNK         0.3041 
     95 H95        22.1165    1.2401   -1.7668 H         1 UNK         0.0784 
     96 H96        19.8676    0.1447   -1.6666 H         1 UNK         0.0793 
     97 H97        20.5526   -1.2072   -0.7754 H         1 UNK         0.0793 
     98 H98        20.5196    0.4049   -0.0582 H         1 UNK         0.0793 
     99 H99        22.7993   -0.7146    0.1769 H         1 UNK         0.3024 
    100 H100       26.0717    0.2477    0.4778 H         1 UNK         0.1171 
    101 H101       25.4039   -1.2276    2.3359 H         1 UNK         0.0786 
    102 H102       24.1048   -0.1027    1.9967 H         1 UNK         0.0786 
    103 H103       23.9822   -1.7805    1.4665 H         1 UNK         0.0786 
    104 H104       27.1431   -1.5802   -0.2019 H         1 UNK         0.2977 
    105 H105       25.3221   -1.2857   -7.2852 H         1 UNK         0.3127 
    106 H106       24.5594    1.0830   -8.8912 H         1 UNK         0.0770 
    107 H107       24.4093   -1.9224   -9.4956 H         1 UNK         0.0814 
    108 H108       23.7287   -0.6382  -10.4857 H         1 UNK         0.0814 
    109 H109       23.0908   -0.9293   -8.8755 H         1 UNK         0.0814 
    110 H110       27.1662   -1.2657   -8.6405 H         1 UNK         0.2983 
    111 H111       28.3796   -0.8058  -11.2052 H         1 UNK         0.0947 
    112 H112       30.2728   -2.1132  -10.1567 H         1 UNK         0.0806 
    113 H113       28.7219   -2.9081   -9.9788 H         1 UNK         0.0806 
    114 H114       29.4286   -2.0536   -8.6121 H         1 UNK         0.0806 
    115 H115       28.7452    0.6653   -8.0413 H         1 UNK         0.3000 
    116 H116       29.9133    2.3960   -7.2033 H         1 UNK         0.0850 
    117 H117       29.3879    4.5070   -8.4721 H         1 UNK         0.0810 
    118 H118       28.0105    3.4344   -8.3299 H         1 UNK         0.0810 
    119 H119       28.8763    3.5333   -9.8549 H         1 UNK         0.0810 
    120 H120       30.8577    3.8499  -10.1373 H         1 UNK         0.3040 
    121 H121       33.5198    4.2629   -9.4365 H         1 UNK         0.0766 
    122 H122       32.2681    5.6853  -11.0347 H         1 UNK         0.0812 
    123 H123       32.1935    4.3628  -12.2010 H         1 UNK         0.0812 
    124 H124       33.7375    5.0969  -11.7913 H         1 UNK         0.0812 
    125 H125       32.1969    1.3889  -10.9398 H         1 UNK         0.3205 
    126 H126       34.5619    0.3532  -12.1548 H         1 UNK         0.0754 
    127 H127       33.3764   -1.8250  -11.9870 H         1 UNK         0.0769 
    128 H128       32.2654   -0.5762  -12.5314 H         1 UNK         0.0769 
    129 H129       32.2199   -1.1336  -10.8589 H         1 UNK         0.0769 
    130 H130       33.6422    0.6522   -8.7699 H         1 UNK         0.2981 
    131 H131       35.9800   -0.9747   -7.8985 H         1 UNK         0.0541 
    132 H132       36.7567    2.8714   -7.7458 H         1 UNK         0.3459 
    133 H133       35.7452    2.1234   -8.9567 H         1 UNK         0.3459 
    134 H134       33.5458   -0.0321   -6.3119 H         1 UNK         0.0612 
    135 H135       34.9250   -0.8402   -5.6133 H         1 UNK         0.0612 
    136 H136       31.8229   -1.1607   -7.8769 H         1 UNK         0.0624 
    137 H137       31.4673   -2.8660   -7.7171 H         1 UNK         0.0624 
@<TRIPOS>BOND
     1    1    2 1    
     2    1   72 1    
     3    1   73 1    
     4    1   74 1    
     5    2    3 2    
     6    2    4 am   BACKBONE|DICT|INTERRES
     7    4    5 1    
     8    4   75 1    
     9    5    6 1    
    10    5   35 1    
    11    5   76 1    
    12    6    7 1    
    13    6   77 1    
    14    6   78 1    
    15    7    8 1    
    16    8    9 1    
    17    8   79 1    
    18    8   80 1    
    19    9   10 ar   
    20    9   14 ar   
    21   10   11 ar   
    22   10   81 1    
    23   11   12 ar   
    24   11   71 1    
    25   12   13 ar   
    26   12   82 1    
    27   13   14 ar   
    28   13   15 1    
    29   14   83 1    
    30   15   16 1    
    31   15   84 1    
    32   15   85 1    
    33   16   17 1    
    34   17   18 1    
    35   17   86 1    
    36   17   87 1    
    37   18   19 1    
    38   18   37 1    
    39   18   88 1    
    40   19   20 am   BACKBONE|DICT|INTERRES
    41   19   89 1    
    42   20   21 2    
    43   20   22 1    
    44   22   23 1    
    45   22   24 1    
    46   22   90 1    
    47   23   91 1    
    48   23   92 1    
    49   23   93 1    
    50   24   25 am   BACKBONE|DICT|INTERRES
    51   24   94 1    
    52   25   26 2    
    53   25   27 1    
    54   27   28 1    
    55   27   29 1    
    56   27   95 1    
    57   28   96 1    
    58   28   97 1    
    59   28   98 1    
    60   29   30 am   BACKBONE|DICT|INTERRES
    61   29   99 1    
    62   30   31 2    
    63   30   32 1    
    64   32   33 1    
    65   32   34 1    
    66   32  100 1    
    67   33  101 1    
    68   33  102 1    
    69   33  103 1    
    70   34   35 am   BACKBONE|DICT|INTERRES
    71   34  104 1    
    72   35   36 2    
    73   37   38 2    
    74   37   39 am   BACKBONE|DICT|INTERRES
    75   39   40 1    
    76   39  105 1    
    77   40   41 1    
    78   40   42 1    
    79   40  106 1    
    80   41  107 1    
    81   41  108 1    
    82   41  109 1    
    83   42   43 2    
    84   42   44 am   BACKBONE|DICT|INTERRES
    85   44   45 1    
    86   44  110 1    
    87   45   46 1    
    88   45   47 1    
    89   45  111 1    
    90   46  112 1    
    91   46  113 1    
    92   46  114 1    
    93   47   48 2    
    94   47   49 am   BACKBONE|DICT|INTERRES
    95   49   50 1    
    96   49  115 1    
    97   50   51 1    
    98   50   52 1    
    99   50  116 1    
   100   51  117 1    
   101   51  118 1    
   102   51  119 1    
   103   52   53 2    
   104   52   54 am   BACKBONE|DICT|INTERRES
   105   54   55 1    
   106   54  120 1    
   107   55   56 1    
   108   55   57 1    
   109   55  121 1    
   110   56  122 1    
   111   56  123 1    
   112   56  124 1    
   113   57   58 2    
   114   57   59 am   BACKBONE|DICT|INTERRES
   115   59   60 1    
   116   59  125 1    
   117   60   61 1    
   118   60   62 1    
   119   60  126 1    
   120   61  127 1    
   121   61  128 1    
   122   61  129 1    
   123   62   63 2    
   124   62   64 am   BACKBONE|DICT|INTERRES
   125   64   65 1    
   126   64  130 1    
   127   65   66 1    
   128   65   69 1    
   129   65  131 1    
   130   66   67 am   BACKBONE|DICT|INTERRES
   131   66   68 2    
   132   67  132 1    
   133   67  133 1    
   134   69   70 1    
   135   69  134 1    
   136   69  135 1    
   137   70   71 1    
   138   71  136 1    
   139   71  137 1    
@<TRIPOS>SUBSTRUCTURE
     1 UNK         1 GROUP             0       ****    0 ROOT    
