@<TRIPOS>MOLECULE
3R137
137   139    1
SMALL
USER_CHARGES


@<TRIPOS>ATOM
      1 CA         29.9894   -4.8429   -6.2166 C.3       0 UNK        -0.2020 
      2 C          29.2819   -5.4196   -4.9989 C.2       0 UNK         0.4855 
      3 O          29.1725   -6.6396   -4.8750 O.2       0 UNK        -0.5197 
      4 N          28.7984   -4.5557   -4.1020 N.am      1 UNK        -0.4892 
      5 CA         28.0539   -4.9028   -2.8945 C.3       1 UNK         0.0835 
      6 C6         28.9823   -5.4008   -1.7477 C.3       12 UNK        -0.0855 
      7 S7         29.8156   -4.1412   -0.7142 S.3       12 UNK        -0.2931 
      8 C8         31.1003   -3.4641   -1.8233 C.3       12 UNK         0.0378 
      9 C9         30.6615   -2.1876   -2.5383 C.ar      12 UNK        -0.0802 
     10 C10        30.9236   -2.0159   -3.9026 C.ar      12 UNK        -0.0944 
     11 C11        30.5316   -0.8438   -4.5580 C.ar      12 UNK        -0.0787 
     12 C12        29.8868    0.1649   -3.8403 C.ar      12 UNK        -0.0862 
     13 C13        29.6220    0.0117   -2.4785 C.ar      12 UNK        -0.0733 
     14 C14        30.0209   -1.1613   -1.8328 C.ar      12 UNK        -0.0832 
     15 C15        28.9016    1.1018   -1.6999 C.3       12 UNK         0.0240 
     16 S16        27.1271    0.7242   -1.5578 S.3       12 UNK        -0.2522 
     17 C17        26.3515    2.0242   -2.5773 C.3       12 UNK        -0.0967 
     18 CA         26.6114    1.8873   -4.0981 C.3       5 UNK         0.0660 
     19 N          26.2939    0.5487   -4.6153 N.am      5 UNK        -0.4015 
     20 C          26.5555    0.1241   -5.8607 C.2       4 UNK         0.4946 
     21 O          27.0895    0.8291   -6.7168 O.2       4 UNK        -0.5353 
     22 CA         26.1456   -1.3027   -6.2505 C.3       4 UNK         0.0277 
     23 CB         27.3920   -2.1667   -6.4952 C.3       4 UNK        -0.1981 
     24 N          25.2845   -1.9480   -5.2578 N.am      4 UNK        -0.4209 
     25 C          23.9535   -1.7908   -5.1955 C.2       3 UNK         0.4942 
     26 O          23.3257   -1.0387   -5.9417 O.2       3 UNK        -0.5208 
     27 CA         23.1831   -2.6061   -4.1393 C.3       3 UNK         0.0250 
     28 CB         22.5475   -3.8481   -4.7851 C.3       3 UNK        -0.1990 
     29 N          24.0154   -3.0279   -3.0105 N.am      3 UNK        -0.4232 
     30 C          24.4269   -2.2136   -2.0295 C.2       2 UNK         0.4993 
     31 O          24.0799   -1.0364   -1.9336 O.2       2 UNK        -0.5286 
     32 CA         25.4122   -2.8018   -1.0004 C.3       2 UNK         0.0209 
     33 CB         24.6552   -3.3253    0.2308 C.3       2 UNK        -0.1931 
     34 N          26.2898   -3.8628   -1.5197 N.am      2 UNK        -0.4546 
     35 C          27.1462   -3.7084   -2.5398 C.2       1 UNK         0.5154 
     36 O          27.2092   -2.6779   -3.2154 O.2       1 UNK        -0.5181 
     37 C          25.9116    3.0261   -4.8701 C.2       5 UNK         0.5014 
     38 O          26.4651    4.1229   -4.9556 O.2       5 UNK        -0.5248 
     39 N          24.7283    2.7469   -5.4349 N.am      6 UNK        -0.4434 
     40 CA         23.9884    3.6677   -6.3001 C.3       6 UNK         0.0363 
     41 CB         22.5126    3.2380   -6.3366 C.3       6 UNK        -0.1936 
     42 C          24.5562    3.7469   -7.7307 C.2       6 UNK         0.5081 
     43 O          24.3079    4.7401   -8.4148 O.2       6 UNK        -0.5248 
     44 N          25.2764    2.7053   -8.1691 N.am      7 UNK        -0.4718 
     45 CA         25.8294    2.5842   -9.5197 C.3       7 UNK         0.0273 
     46 CB         25.6647    1.1313   -9.9988 C.3       7 UNK        -0.1935 
     47 C          27.3079    2.9933   -9.5889 C.2       7 UNK         0.5018 
     48 O          27.7239    3.5411  -10.6102 O.2       7 UNK        -0.5186 
     49 N          28.0703    2.6927   -8.5248 N.am      8 UNK        -0.4240 
     50 CA         29.5321    2.7948   -8.4187 C.3       8 UNK         0.0235 
     51 CB         30.0004    4.2642   -8.4719 C.3       8 UNK        -0.2000 
     52 C          30.2347    1.8895   -9.4504 C.2       8 UNK         0.4941 
     53 O          31.1377    2.3317  -10.1652 O.2       8 UNK        -0.5273 
     54 N          29.7695    0.6348   -9.5317 N.am      9 UNK        -0.4262 
     55 CA         30.1874   -0.3822  -10.4990 C.3       9 UNK         0.0264 
     56 CB         29.1251   -1.4976  -10.5246 C.3       9 UNK        -0.1955 
     57 C          31.6023   -0.9271  -10.2210 C.2       9 UNK         0.5031 
     58 O          31.7458   -2.0751   -9.7939 O.2       9 UNK        -0.5390 
     59 N          32.6177   -0.0822  -10.4491 N.am      10 UNK        -0.4204 
     60 CA         34.0679   -0.2949  -10.3005 C.3       10 UNK         0.0237 
     61 CB         34.5720   -1.4435  -11.1966 C.3       10 UNK        -0.1985 
     62 C          34.5359   -0.4730   -8.8446 C.2       10 UNK         0.4970 
     63 O          35.4929    0.1872   -8.4376 O.2       10 UNK        -0.4914 
     64 N          33.8308   -1.3223   -8.0912 N.am      11 UNK        -0.4285 
     65 CA         33.9696   -1.5560   -6.6475 C.3       11 UNK         0.1007 
     66 C          35.3278   -2.2085   -6.2473 C.2       11 UNK         0.5703 
     67 N          35.7128   -2.1558   -4.9783 N.am      11 UNK        -0.7361 
     68 O          36.0172   -2.8158   -7.0655 O.2       11 UNK        -0.4986 
     69 C69        33.5938   -0.3022   -5.7961 C.3       12 UNK        -0.0947 
     70 S70        32.0895    0.5761   -6.3533 S.3       12 UNK        -0.2240 
     71 C71        30.7856   -0.6522   -6.0441 C.3       12 UNK         0.0194 
     72 H72        29.9134   -3.7579   -6.2586 H         1 UNK         0.0906 
     73 H73        31.0454   -5.1106   -6.1993 H         1 UNK         0.0906 
     74 H74        29.5513   -5.2443   -7.1301 H         1 UNK         0.0906 
     75 H75        28.8612   -3.5534   -4.2402 H         1 UNK         0.3140 
     76 H76        27.3779   -5.7195   -3.1583 H         1 UNK         0.1085 
     77 H77        28.3895   -6.0103   -1.0640 H         1 UNK         0.0836 
     78 H78        29.7372   -6.0845   -2.1392 H         1 UNK         0.0836 
     79 H79        31.4043   -4.2303   -2.5380 H         1 UNK         0.0731 
     80 H80        31.9839   -3.2326   -1.2274 H         1 UNK         0.0731 
     81 H81        31.4344   -2.7934   -4.4532 H         1 UNK         0.1312 
     82 H82        29.6032    1.0716   -4.3523 H         1 UNK         0.1406 
     83 H83        29.8165   -1.2805   -0.7777 H         1 UNK         0.1631 
     84 H84        29.0526    2.0754   -2.1681 H         1 UNK         0.0717 
     85 H85        29.3261    1.1790   -0.6979 H         1 UNK         0.0717 
     86 H86        25.2788    1.9935   -2.3750 H         1 UNK         0.0934 
     87 H87        26.6971    2.9946   -2.2146 H         1 UNK         0.0934 
     88 H88        27.6753    2.0431   -4.2658 H         1 UNK         0.0739 
     89 H89        25.9011   -0.1041   -3.9512 H         1 UNK         0.3093 
     90 H90        25.5996   -1.2347   -7.1941 H         1 UNK         0.0818 
     91 H91        27.9667   -1.7857   -7.3395 H         1 UNK         0.0819 
     92 H92        28.0536   -2.1665   -5.6300 H         1 UNK         0.0819 
     93 H93        27.1273   -3.1992   -6.7230 H         1 UNK         0.0819 
     94 H94        25.7585   -2.4983   -4.5486 H         1 UNK         0.3041 
     95 H95        22.3794   -1.9716   -3.7588 H         1 UNK         0.0784 
     96 H96        21.8949   -3.5664   -5.6129 H         1 UNK         0.0793 
     97 H97        23.3015   -4.5290   -5.1823 H         1 UNK         0.0793 
     98 H98        21.9384   -4.4003   -4.0692 H         1 UNK         0.0793 
     99 H99        24.3352   -3.9855   -3.0053 H         1 UNK         0.3024 
    100 H100       26.0575   -1.9806   -0.6804 H         1 UNK         0.1171 
    101 H101       25.3431   -3.6366    1.0173 H         1 UNK         0.0786 
    102 H102       24.0142   -2.5501    0.6534 H         1 UNK         0.0786 
    103 H103       24.0187   -4.1756   -0.0172 H         1 UNK         0.0786 
    104 H104       26.2891   -4.7360   -1.0121 H         1 UNK         0.2977 
    105 H105       24.3369    1.8237   -5.3096 H         1 UNK         0.3127 
    106 H106       24.0401    4.6705   -5.8702 H         1 UNK         0.0770 
    107 H107       22.3935    2.2347   -6.7483 H         1 UNK         0.0814 
    108 H108       21.9238    3.9163   -6.9558 H         1 UNK         0.0814 
    109 H109       22.0713    3.2473   -5.3398 H         1 UNK         0.0814 
    110 H110       25.4960    1.9576   -7.5235 H         1 UNK         0.2983 
    111 H111       25.2762    3.2284  -10.2073 H         1 UNK         0.0947 
    112 H112       26.0562    1.0069  -11.0095 H         1 UNK         0.0806 
    113 H113       24.6148    0.8390  -10.0210 H         1 UNK         0.0806 
    114 H114       26.1943    0.4272   -9.3559 H         1 UNK         0.0806 
    115 H115       27.6242    2.1782   -7.7663 H         1 UNK         0.3000 
    116 H116       29.7948    2.4022   -7.4352 H         1 UNK         0.0850 
    117 H117       31.0705    4.3367   -8.2741 H         1 UNK         0.0810 
    118 H118       29.4898    4.8693   -7.7228 H         1 UNK         0.0810 
    119 H119       29.8208    4.7152   -9.4482 H         1 UNK         0.0810 
    120 H120       29.0346    0.3665   -8.8935 H         1 UNK         0.3040 
    121 H121       30.2058    0.0778  -11.4894 H         1 UNK         0.0766 
    122 H122       28.1430   -1.1071  -10.7919 H         1 UNK         0.0812 
    123 H123       29.0379   -1.9970   -9.5591 H         1 UNK         0.0812 
    124 H124       29.3800   -2.2603  -11.2617 H         1 UNK         0.0812 
    125 H125       32.3437    0.8743  -10.6640 H         1 UNK         0.3205 
    126 H126       34.5313    0.6242  -10.6629 H         1 UNK         0.0754 
    127 H127       35.6586   -1.5252  -11.1471 H         1 UNK         0.0769 
    128 H128       34.3067   -1.2768  -12.2406 H         1 UNK         0.0769 
    129 H129       34.1626   -2.4086  -10.8967 H         1 UNK         0.0769 
    130 H130       33.0692   -1.8135   -8.5532 H         1 UNK         0.2981 
    131 H131       33.2352   -2.3299   -6.4268 H         1 UNK         0.0541 
    132 H132       35.1593   -1.6805   -4.2835 H         1 UNK         0.3459 
    133 H133       36.5805   -2.5950   -4.7133 H         1 UNK         0.3459 
    134 H134       34.4117    0.4200   -5.8146 H         1 UNK         0.0612 
    135 H135       33.4543   -0.5750   -4.7492 H         1 UNK         0.0612 
    136 H136       29.8678   -0.3013   -6.5175 H         1 UNK         0.0624 
    137 H137       31.0347   -1.5938   -6.5330 H         1 UNK         0.0624 
@<TRIPOS>BOND
     1    1    2 1    
     2    1   72 1    
     3    1   73 1    
     4    1   74 1    
     5    2    3 2    
     6    2    4 am   BACKBONE|DICT|INTERRES
     7    4    5 1    
     8    4   75 1    
     9    5    6 1    
    10    5   35 1    
    11    5   76 1    
    12    6    7 1    
    13    6   77 1    
    14    6   78 1    
    15    7    8 1    
    16    8    9 1    
    17    8   79 1    
    18    8   80 1    
    19    9   10 ar   
    20    9   14 ar   
    21   10   11 ar   
    22   10   81 1    
    23   11   12 ar   
    24   11   71 1    
    25   12   13 ar   
    26   12   82 1    
    27   13   14 ar   
    28   13   15 1    
    29   14   83 1    
    30   15   16 1    
    31   15   84 1    
    32   15   85 1    
    33   16   17 1    
    34   17   18 1    
    35   17   86 1    
    36   17   87 1    
    37   18   19 1    
    38   18   37 1    
    39   18   88 1    
    40   19   20 am   BACKBONE|DICT|INTERRES
    41   19   89 1    
    42   20   21 2    
    43   20   22 1    
    44   22   23 1    
    45   22   24 1    
    46   22   90 1    
    47   23   91 1    
    48   23   92 1    
    49   23   93 1    
    50   24   25 am   BACKBONE|DICT|INTERRES
    51   24   94 1    
    52   25   26 2    
    53   25   27 1    
    54   27   28 1    
    55   27   29 1    
    56   27   95 1    
    57   28   96 1    
    58   28   97 1    
    59   28   98 1    
    60   29   30 am   BACKBONE|DICT|INTERRES
    61   29   99 1    
    62   30   31 2    
    63   30   32 1    
    64   32   33 1    
    65   32   34 1    
    66   32  100 1    
    67   33  101 1    
    68   33  102 1    
    69   33  103 1    
    70   34   35 am   BACKBONE|DICT|INTERRES
    71   34  104 1    
    72   35   36 2    
    73   37   38 2    
    74   37   39 am   BACKBONE|DICT|INTERRES
    75   39   40 1    
    76   39  105 1    
    77   40   41 1    
    78   40   42 1    
    79   40  106 1    
    80   41  107 1    
    81   41  108 1    
    82   41  109 1    
    83   42   43 2    
    84   42   44 am   BACKBONE|DICT|INTERRES
    85   44   45 1    
    86   44  110 1    
    87   45   46 1    
    88   45   47 1    
    89   45  111 1    
    90   46  112 1    
    91   46  113 1    
    92   46  114 1    
    93   47   48 2    
    94   47   49 am   BACKBONE|DICT|INTERRES
    95   49   50 1    
    96   49  115 1    
    97   50   51 1    
    98   50   52 1    
    99   50  116 1    
   100   51  117 1    
   101   51  118 1    
   102   51  119 1    
   103   52   53 2    
   104   52   54 am   BACKBONE|DICT|INTERRES
   105   54   55 1    
   106   54  120 1    
   107   55   56 1    
   108   55   57 1    
   109   55  121 1    
   110   56  122 1    
   111   56  123 1    
   112   56  124 1    
   113   57   58 2    
   114   57   59 am   BACKBONE|DICT|INTERRES
   115   59   60 1    
   116   59  125 1    
   117   60   61 1    
   118   60   62 1    
   119   60  126 1    
   120   61  127 1    
   121   61  128 1    
   122   61  129 1    
   123   62   63 2    
   124   62   64 am   BACKBONE|DICT|INTERRES
   125   64   65 1    
   126   64  130 1    
   127   65   66 1    
   128   65   69 1    
   129   65  131 1    
   130   66   67 am   BACKBONE|DICT|INTERRES
   131   66   68 2    
   132   67  132 1    
   133   67  133 1    
   134   69   70 1    
   135   69  134 1    
   136   69  135 1    
   137   70   71 1    
   138   71  136 1    
   139   71  137 1    
@<TRIPOS>SUBSTRUCTURE
     1 UNK         1 GROUP             0       ****    0 ROOT    
