@<TRIPOS>MOLECULE
3R137
137   139    1
SMALL
USER_CHARGES


@<TRIPOS>ATOM
      1 CA         25.2572   -6.0048   -0.6569 C.3       0 UNK        -0.2020 
      2 C          26.2166   -4.8256   -0.6054 C.2       0 UNK         0.4855 
      3 O          26.1016   -3.9792    0.2824 O.2       0 UNK        -0.5197 
      4 N          27.1617   -4.7565   -1.5515 N.am      1 UNK        -0.4892 
      5 CA         28.1564   -3.6868   -1.6764 C.3       1 UNK         0.0835 
      6 C6         29.3936   -4.1431   -2.4884 C.3       12 UNK        -0.0855 
      7 S7         30.6169   -5.0228   -1.4653 S.3       12 UNK        -0.2931 
      8 C8         31.5344   -3.6330   -0.7057 C.3       12 UNK         0.0378 
      9 C9         32.0924   -2.6434   -1.7251 C.ar      12 UNK        -0.0802 
     10 C10        33.0896   -3.0443   -2.6177 C.ar      12 UNK        -0.0944 
     11 C11        33.6042   -2.1520   -3.5639 C.ar      12 UNK        -0.0787 
     12 C12        33.1375   -0.8321   -3.5821 C.ar      12 UNK        -0.0862 
     13 C13        32.1356   -0.4141   -2.6983 C.ar      12 UNK        -0.0733 
     14 C14        31.6143   -1.3279   -1.7751 C.ar      12 UNK        -0.0832 
     15 C15        31.6658    1.0388   -2.6962 C.3       12 UNK         0.0240 
     16 S16        30.9747    1.5862   -4.2944 S.3       12 UNK        -0.2522 
     17 C17        29.2318    1.0609   -4.1764 C.3       12 UNK        -0.0967 
     18 CA         28.5917    0.9223   -5.5854 C.3       5 UNK         0.0660 
     19 N          27.7774   -0.2865   -5.7200 N.am      5 UNK        -0.4015 
     20 C          27.4243   -0.8185   -6.8987 C.2       4 UNK         0.4946 
     21 O          27.7673   -0.3485   -7.9832 O.2       4 UNK        -0.5353 
     22 CA         26.5254   -2.0642   -6.8659 C.3       4 UNK         0.0277 
     23 CB         27.3629   -3.3506   -6.8186 C.3       4 UNK        -0.1981 
     24 N          25.5968   -2.0432   -5.7354 N.am      4 UNK        -0.4209 
     25 C          24.4805   -1.3030   -5.6948 C.2       3 UNK         0.4942 
     26 O          24.0881   -0.6006   -6.6261 O.2       3 UNK        -0.5208 
     27 CA         23.6891   -1.3226   -4.3755 C.3       3 UNK         0.0250 
     28 CB         22.7928   -2.5690   -4.2962 C.3       3 UNK        -0.1990 
     29 N          24.5480   -1.2580   -3.1888 N.am      3 UNK        -0.4232 
     30 C          25.3522   -0.2272   -2.8938 C.2       2 UNK         0.4993 
     31 O          25.4557    0.7816   -3.5876 O.2       2 UNK        -0.5286 
     32 CA         26.2290   -0.3533   -1.6417 C.3       2 UNK         0.0209 
     33 CB         25.4598    0.1144   -0.3963 C.3       2 UNK        -0.1931 
     34 N          26.7694   -1.6947   -1.4069 N.am      2 UNK        -0.4546 
     35 C          27.5241   -2.4047   -2.2558 C.2       1 UNK         0.5154 
     36 O          27.7282   -2.0825   -3.4306 O.2       1 UNK        -0.5181 
     37 C          27.8155    2.1805   -6.0350 C.2       5 UNK         0.5014 
     38 O          28.3784    3.0270   -6.7304 O.2       5 UNK        -0.5248 
     39 N          26.5193    2.2538   -5.6975 N.am      6 UNK        -0.4434 
     40 CA         25.5858    3.2725   -6.1863 C.3       6 UNK         0.0363 
     41 CB         24.2527    3.1542   -5.4314 C.3       6 UNK        -0.1936 
     42 C          25.3480    3.1947   -7.7047 C.2       6 UNK         0.5081 
     43 O          25.1625    4.2335   -8.3400 O.2       6 UNK        -0.5248 
     44 N          25.3959    1.9826   -8.2752 N.am      7 UNK        -0.4718 
     45 CA         25.2856    1.7111   -9.7114 C.3       7 UNK         0.0273 
     46 CB         24.8244    0.2562   -9.9153 C.3       7 UNK        -0.1935 
     47 C          26.5943    2.0307  -10.4642 C.2       7 UNK         0.5018 
     48 O          27.1580    1.1576  -11.1254 O.2       7 UNK        -0.5186 
     49 N          27.0416    3.2892  -10.3506 N.am      8 UNK        -0.4240 
     50 CA         28.2177    3.8868  -10.9924 C.3       8 UNK         0.0235 
     51 CB         28.0054    3.9930  -12.5185 C.3       8 UNK        -0.2000 
     52 C          29.5466    3.2006  -10.6154 C.2       8 UNK         0.4941 
     53 O          30.3920    2.9883  -11.4872 O.2       8 UNK        -0.5273 
     54 N          29.7169    2.8971   -9.3188 N.am      9 UNK        -0.4262 
     55 CA         30.9239    2.3402   -8.6966 C.3       9 UNK         0.0264 
     56 CB         32.0797    3.3637   -8.7363 C.3       9 UNK        -0.1955 
     57 C          31.3275    0.9585   -9.2439 C.2       9 UNK         0.5031 
     58 O          32.5205    0.6863   -9.3910 O.2       9 UNK        -0.5390 
     59 N          30.3479    0.0762   -9.4886 N.am      10 UNK        -0.4204 
     60 CA         30.5564   -1.2903   -9.9875 C.3       10 UNK         0.0237 
     61 CB         29.2931   -1.7433  -10.7442 C.3       10 UNK        -0.1985 
     62 C          30.9676   -2.2825   -8.8760 C.2       10 UNK         0.4970 
     63 O          30.5594   -3.4436   -8.9165 O.2       10 UNK        -0.4914 
     64 N          31.7647   -1.8041   -7.9110 N.am      11 UNK        -0.4285 
     65 CA         32.1990   -2.4781   -6.6814 C.3       11 UNK         0.1007 
     66 C          31.0013   -2.9863   -5.8315 C.2       11 UNK         0.5703 
     67 N          30.2834   -2.0683   -5.2001 N.am      11 UNK        -0.7361 
     68 O          30.7091   -4.1773   -5.7569 O.2       11 UNK        -0.4986 
     69 C69        33.3106   -3.5298   -6.9419 C.3       12 UNK        -0.0947 
     70 S70        34.2178   -4.1218   -5.4657 S.3       12 UNK        -0.2240 
     71 C71        34.6795   -2.6085   -4.5475 C.3       12 UNK         0.0194 
     72 H72        24.2323   -5.6503   -0.7635 H         1 UNK         0.0906 
     73 H73        25.4741   -6.6719   -1.4910 H         1 UNK         0.0906 
     74 H74        25.3239   -6.5821    0.2650 H         1 UNK         0.0906 
     75 H75        27.2056   -5.4758   -2.2597 H         1 UNK         0.3140 
     76 H76        28.4979   -3.4204   -0.6735 H         1 UNK         0.1085 
     77 H77        29.1025   -4.7782   -3.3270 H         1 UNK         0.0836 
     78 H78        29.9085   -3.2998   -2.9401 H         1 UNK         0.0836 
     79 H79        32.3597   -4.0391   -0.1191 H         1 UNK         0.0731 
     80 H80        30.8818   -3.1253    0.0058 H         1 UNK         0.0731 
     81 H81        33.4536   -4.0623   -2.5860 H         1 UNK         0.1312 
     82 H82        33.5495   -0.1244   -4.2887 H         1 UNK         0.1406 
     83 H83        30.8472   -1.0096   -1.0824 H         1 UNK         0.1631 
     84 H84        32.5213    1.6726   -2.4593 H         1 UNK         0.0717 
     85 H85        30.9323    1.2162   -1.9081 H         1 UNK         0.0717 
     86 H86        29.2152    0.1084   -3.6456 H         1 UNK         0.0934 
     87 H87        28.6815    1.7582   -3.5413 H         1 UNK         0.0934 
     88 H88        29.3994    0.7934   -6.3081 H         1 UNK         0.0739 
     89 H89        27.5055   -0.7641   -4.8668 H         1 UNK         0.3093 
     90 H90        25.9487   -2.0759   -7.7929 H         1 UNK         0.0818 
     91 H91        26.7373   -4.2335   -6.9490 H         1 UNK         0.0819 
     92 H92        28.1085   -3.3625   -7.6147 H         1 UNK         0.0819 
     93 H93        27.8939   -3.4571   -5.8729 H         1 UNK         0.0819 
     94 H94        25.8750   -2.5500   -4.9064 H         1 UNK         0.3041 
     95 H95        23.0469   -0.4392   -4.3667 H         1 UNK         0.0784 
     96 H96        22.1339   -2.6303   -5.1636 H         1 UNK         0.0793 
     97 H97        23.3774   -3.4893   -4.2653 H         1 UNK         0.0793 
     98 H98        22.1572   -2.5447   -3.4107 H         1 UNK         0.0793 
     99 H99        24.5343   -2.0495   -2.5620 H         1 UNK         0.3024 
    100 H100       27.0810    0.3150   -1.7843 H         1 UNK         0.1171 
    101 H101       25.0576    1.1187   -0.5388 H         1 UNK         0.0786 
    102 H102       26.1072    0.1489    0.4802 H         1 UNK         0.0786 
    103 H103       24.6210   -0.5445   -0.1680 H         1 UNK         0.0786 
    104 H104       26.5834   -2.1105   -0.5000 H         1 UNK         0.2977 
    105 H105       26.1337    1.5626   -5.0539 H         1 UNK         0.3127 
    106 H106       26.0172    4.2521   -5.9697 H         1 UNK         0.0770 
    107 H107       23.7909    2.1773   -5.5825 H         1 UNK         0.0814 
    108 H108       23.5420    3.9093   -5.7698 H         1 UNK         0.0814 
    109 H109       24.3907    3.2958   -4.3594 H         1 UNK         0.0814 
    110 H110       25.5673    1.1812   -7.6827 H         1 UNK         0.2983 
    111 H111       24.5122    2.3602  -10.1281 H         1 UNK         0.0947 
    112 H112       24.6548    0.0452  -10.9718 H         1 UNK         0.0806 
    113 H113       23.8899    0.0569   -9.3906 H         1 UNK         0.0806 
    114 H114       25.5683   -0.4555   -9.5581 H         1 UNK         0.0806 
    115 H115       26.5005    3.9049   -9.7492 H         1 UNK         0.3000 
    116 H116       28.2888    4.9035  -10.6030 H         1 UNK         0.0850 
    117 H117       28.8163    4.5505  -12.9889 H         1 UNK         0.0810 
    118 H118       27.0773    4.5131  -12.7555 H         1 UNK         0.0810 
    119 H119       27.9701    3.0107  -12.9909 H         1 UNK         0.0810 
    120 H120       28.9624    3.0905   -8.6660 H         1 UNK         0.3040 
    121 H121       30.6849    2.1821   -7.6460 H         1 UNK         0.0766 
    122 H122       31.7752    4.3215   -8.3144 H         1 UNK         0.0812 
    123 H123       32.4310    3.5400   -9.7535 H         1 UNK         0.0812 
    124 H124       32.9330    3.0133   -8.1543 H         1 UNK         0.0812 
    125 H125       29.3881    0.3222   -9.2661 H         1 UNK         0.3205 
    126 H126       31.3766   -1.2729  -10.7081 H         1 UNK         0.0754 
    127 H127       29.4472   -2.7092  -11.2267 H         1 UNK         0.0769 
    128 H128       29.0229   -1.0323  -11.5254 H         1 UNK         0.0769 
    129 H129       28.4370   -1.8442  -10.0765 H         1 UNK         0.0769 
    130 H130       32.0904   -0.8529   -8.0267 H         1 UNK         0.2981 
    131 H131       32.6551   -1.6702   -6.1155 H         1 UNK         0.0541 
    132 H132       30.5534   -1.0996   -5.2294 H         1 UNK         0.3459 
    133 H133       29.4888   -2.3525   -4.6466 H         1 UNK         0.3459 
    134 H134       32.8946   -4.3975   -7.4564 H         1 UNK         0.0612 
    135 H135       34.0539   -3.1113   -7.6220 H         1 UNK         0.0612 
    136 H136       35.5890   -2.8162   -3.9826 H         1 UNK         0.0624 
    137 H137       34.9348   -1.8188   -5.2557 H         1 UNK         0.0624 
@<TRIPOS>BOND
     1    1    2 1    
     2    1   72 1    
     3    1   73 1    
     4    1   74 1    
     5    2    3 2    
     6    2    4 am   BACKBONE|DICT|INTERRES
     7    4    5 1    
     8    4   75 1    
     9    5    6 1    
    10    5   35 1    
    11    5   76 1    
    12    6    7 1    
    13    6   77 1    
    14    6   78 1    
    15    7    8 1    
    16    8    9 1    
    17    8   79 1    
    18    8   80 1    
    19    9   10 ar   
    20    9   14 ar   
    21   10   11 ar   
    22   10   81 1    
    23   11   12 ar   
    24   11   71 1    
    25   12   13 ar   
    26   12   82 1    
    27   13   14 ar   
    28   13   15 1    
    29   14   83 1    
    30   15   16 1    
    31   15   84 1    
    32   15   85 1    
    33   16   17 1    
    34   17   18 1    
    35   17   86 1    
    36   17   87 1    
    37   18   19 1    
    38   18   37 1    
    39   18   88 1    
    40   19   20 am   BACKBONE|DICT|INTERRES
    41   19   89 1    
    42   20   21 2    
    43   20   22 1    
    44   22   23 1    
    45   22   24 1    
    46   22   90 1    
    47   23   91 1    
    48   23   92 1    
    49   23   93 1    
    50   24   25 am   BACKBONE|DICT|INTERRES
    51   24   94 1    
    52   25   26 2    
    53   25   27 1    
    54   27   28 1    
    55   27   29 1    
    56   27   95 1    
    57   28   96 1    
    58   28   97 1    
    59   28   98 1    
    60   29   30 am   BACKBONE|DICT|INTERRES
    61   29   99 1    
    62   30   31 2    
    63   30   32 1    
    64   32   33 1    
    65   32   34 1    
    66   32  100 1    
    67   33  101 1    
    68   33  102 1    
    69   33  103 1    
    70   34   35 am   BACKBONE|DICT|INTERRES
    71   34  104 1    
    72   35   36 2    
    73   37   38 2    
    74   37   39 am   BACKBONE|DICT|INTERRES
    75   39   40 1    
    76   39  105 1    
    77   40   41 1    
    78   40   42 1    
    79   40  106 1    
    80   41  107 1    
    81   41  108 1    
    82   41  109 1    
    83   42   43 2    
    84   42   44 am   BACKBONE|DICT|INTERRES
    85   44   45 1    
    86   44  110 1    
    87   45   46 1    
    88   45   47 1    
    89   45  111 1    
    90   46  112 1    
    91   46  113 1    
    92   46  114 1    
    93   47   48 2    
    94   47   49 am   BACKBONE|DICT|INTERRES
    95   49   50 1    
    96   49  115 1    
    97   50   51 1    
    98   50   52 1    
    99   50  116 1    
   100   51  117 1    
   101   51  118 1    
   102   51  119 1    
   103   52   53 2    
   104   52   54 am   BACKBONE|DICT|INTERRES
   105   54   55 1    
   106   54  120 1    
   107   55   56 1    
   108   55   57 1    
   109   55  121 1    
   110   56  122 1    
   111   56  123 1    
   112   56  124 1    
   113   57   58 2    
   114   57   59 am   BACKBONE|DICT|INTERRES
   115   59   60 1    
   116   59  125 1    
   117   60   61 1    
   118   60   62 1    
   119   60  126 1    
   120   61  127 1    
   121   61  128 1    
   122   61  129 1    
   123   62   63 2    
   124   62   64 am   BACKBONE|DICT|INTERRES
   125   64   65 1    
   126   64  130 1    
   127   65   66 1    
   128   65   69 1    
   129   65  131 1    
   130   66   67 am   BACKBONE|DICT|INTERRES
   131   66   68 2    
   132   67  132 1    
   133   67  133 1    
   134   69   70 1    
   135   69  134 1    
   136   69  135 1    
   137   70   71 1    
   138   71  136 1    
   139   71  137 1    
@<TRIPOS>SUBSTRUCTURE
     1 UNK         1 GROUP             0       ****    0 ROOT    
