@<TRIPOS>MOLECULE
3R137
137   139    1
SMALL
USER_CHARGES


@<TRIPOS>ATOM
      1 CA         25.0515   -4.7077    2.1616 C.3       0 UNK        -0.2020 
      2 C          26.3751   -5.1709    1.5584 C.2       0 UNK         0.4855 
      3 O          26.6084   -6.3747    1.4728 O.2       0 UNK        -0.5197 
      4 N          27.2754   -4.2722    1.1338 N.am      1 UNK        -0.4892 
      5 CA         27.1457   -2.8076    1.1051 C.3       1 UNK         0.0835 
      6 C6         28.5201   -2.1116    0.9154 C.3       12 UNK        -0.0855 
      7 S7         29.5336   -2.7942   -0.4453 S.3       12 UNK        -0.2931 
      8 C8         29.2316   -1.5670   -1.7526 C.3       12 UNK         0.0378 
      9 C9         29.8355   -1.9934   -3.0822 C.ar      12 UNK        -0.0802 
     10 C10        30.7921   -1.1938   -3.7118 C.ar      12 UNK        -0.0944 
     11 C11        31.2848   -1.5342   -4.9758 C.ar      12 UNK        -0.0787 
     12 C12        30.8462   -2.7127   -5.5904 C.ar      12 UNK        -0.0862 
     13 C13        29.9010   -3.5308   -4.9619 C.ar      12 UNK        -0.0733 
     14 C14        29.3950   -3.1600   -3.7125 C.ar      12 UNK        -0.0832 
     15 C15        29.4255   -4.8190   -5.6225 C.3       12 UNK         0.0240 
     16 S16        28.3132   -4.5341   -7.0392 S.3       12 UNK        -0.2522 
     17 C17        26.9044   -3.6481   -6.2825 C.3       12 UNK        -0.0967 
     18 CA         26.5095   -2.3773   -7.0736 C.3       5 UNK         0.0660 
     19 N          25.2220   -1.8304   -6.6437 N.am      5 UNK        -0.4015 
     20 C          24.5136   -0.9287   -7.3411 C.2       4 UNK         0.4946 
     21 O          24.8292   -0.5216   -8.4592 O.2       4 UNK        -0.5353 
     22 CA         23.2649   -0.3492   -6.6555 C.3       4 UNK         0.0277 
     23 CB         22.0589   -1.2839   -6.8411 C.3       4 UNK        -0.1981 
     24 N          23.4770   -0.0916   -5.2289 N.am      4 UNK        -0.4209 
     25 C          24.3371    0.8173   -4.7461 C.2       3 UNK         0.4942 
     26 O          24.9853    1.5872   -5.4544 O.2       3 UNK        -0.5208 
     27 CA         24.5418    0.8450   -3.2211 C.3       3 UNK         0.0250 
     28 CB         23.5631    1.8319   -2.5656 C.3       3 UNK        -0.1990 
     29 N          24.4190   -0.4684   -2.5775 N.am      3 UNK        -0.4232 
     30 C          25.1982   -1.5279   -2.8362 C.2       2 UNK         0.4993 
     31 O          26.0997   -1.5253   -3.6776 O.2       2 UNK        -0.5286 
     32 CA         24.9001   -2.8145   -2.0463 C.3       2 UNK         0.0209 
     33 CB         24.8310   -4.0350   -2.9807 C.3       2 UNK        -0.1931 
     34 N          25.8919   -3.0725   -1.0002 N.am      2 UNK        -0.4546 
     35 C          26.1018   -2.3084    0.0817 C.2       1 UNK         0.5154 
     36 O          25.4783   -1.2732    0.3171 O.2       1 UNK        -0.5181 
     37 C          27.5970   -1.2884   -7.0344 C.2       5 UNK         0.5014 
     38 O          28.3453   -1.1657   -8.0026 O.2       5 UNK        -0.5248 
     39 N          27.6251   -0.4819   -5.9612 N.am      6 UNK        -0.4434 
     40 CA         28.5378    0.6547   -5.8062 C.3       6 UNK         0.0363 
     41 CB         28.3344    1.3271   -4.4396 C.3       6 UNK        -0.1936 
     42 C          28.4371    1.6744   -6.9495 C.2       6 UNK         0.5081 
     43 O          29.4644    2.0394   -7.5232 O.2       6 UNK        -0.5248 
     44 N          27.2026    2.0686   -7.2885 N.am      7 UNK        -0.4718 
     45 CA         26.8917    2.9637   -8.4036 C.3       7 UNK         0.0273 
     46 CB         25.4000    3.3313   -8.3576 C.3       7 UNK        -0.1935 
     47 C          27.2623    2.3813   -9.7789 C.2       7 UNK         0.5018 
     48 O          27.7386    3.1273  -10.6353 O.2       7 UNK        -0.5186 
     49 N          27.0337    1.0744   -9.9697 N.am      8 UNK        -0.4240 
     50 CA         27.3344    0.3615  -11.2114 C.3       8 UNK         0.0235 
     51 CB         26.5634   -0.9686  -11.2467 C.3       8 UNK        -0.2000 
     52 C          28.8387    0.1227  -11.4162 C.2       8 UNK         0.4941 
     53 O          29.3500    0.4046  -12.5010 O.2       8 UNK        -0.5273 
     54 N          29.5112   -0.4215  -10.3933 N.am      9 UNK        -0.4262 
     55 CA         30.9130   -0.8358  -10.4604 C.3       9 UNK         0.0264 
     56 CB         31.1881   -1.9020   -9.3894 C.3       9 UNK        -0.1955 
     57 C          31.9025    0.3313  -10.3348 C.2       9 UNK         0.5031 
     58 O          32.9392    0.2883  -10.9986 O.2       9 UNK        -0.5390 
     59 N          31.5743    1.3370   -9.5045 N.am      10 UNK        -0.4204 
     60 CA         32.3615    2.5476   -9.2304 C.3       10 UNK         0.0237 
     61 CB         32.3304    3.4917  -10.4510 C.3       10 UNK        -0.1985 
     62 C          33.7934    2.2315   -8.7500 C.2       10 UNK         0.4970 
     63 O          34.7637    2.5510   -9.4402 O.2       10 UNK        -0.4914 
     64 N          33.8889    1.5842   -7.5802 N.am      11 UNK        -0.4285 
     65 CA         35.1477    1.1308   -6.9566 C.3       11 UNK         0.1007 
     66 C          36.1570    2.2618   -6.5948 C.2       11 UNK         0.5703 
     67 N          35.7314    3.5111   -6.4465 N.am      11 UNK        -0.7361 
     68 O          37.3474    1.9964   -6.4448 O.2       11 UNK        -0.4986 
     69 C69        34.8969    0.2389   -5.7086 C.3       12 UNK        -0.0947 
     70 S70        33.8630   -1.2349   -6.0162 S.3       12 UNK        -0.2240 
     71 C71        32.2015   -0.5637   -5.7084 C.3       12 UNK         0.0194 
     72 H72        25.2011   -3.9383    2.9177 H         1 UNK         0.0906 
     73 H73        24.3875   -4.3217    1.3889 H         1 UNK         0.0906 
     74 H74        24.5440   -5.5422    2.6452 H         1 UNK         0.0906 
     75 H75        28.1468   -4.6129    0.7498 H         1 UNK         0.3140 
     76 H76        26.7766   -2.4921    2.0828 H         1 UNK         0.1085 
     77 H77        28.4034   -1.0325    0.7932 H         1 UNK         0.0836 
     78 H78        29.1016   -2.2304    1.8311 H         1 UNK         0.0836 
     79 H79        29.6326   -0.6036   -1.4339 H         1 UNK         0.0731 
     80 H80        28.1596   -1.4257   -1.8869 H         1 UNK         0.0731 
     81 H81        31.1152   -0.2767   -3.2387 H         1 UNK         0.1312 
     82 H82        31.2211   -2.9834   -6.5673 H         1 UNK         0.1406 
     83 H83        28.6498   -3.7747   -3.2264 H         1 UNK         0.1631 
     84 H84        28.9182   -5.4595   -4.8993 H         1 UNK         0.0717 
     85 H85        30.2930   -5.3826   -5.9684 H         1 UNK         0.0717 
     86 H86        26.0634   -4.3426   -6.2546 H         1 UNK         0.0934 
     87 H87        27.1207   -3.4019   -5.2440 H         1 UNK         0.0934 
     88 H88        26.3904   -2.6711   -8.1190 H         1 UNK         0.0739 
     89 H89        24.9319   -2.0535   -5.7032 H         1 UNK         0.3093 
     90 H90        23.0366    0.6039   -7.1382 H         1 UNK         0.0818 
     91 H91        21.1495   -0.8441   -6.4313 H         1 UNK         0.0819 
     92 H92        21.8749   -1.4750   -7.8994 H         1 UNK         0.0819 
     93 H93        22.2129   -2.2496   -6.3580 H         1 UNK         0.0819 
     94 H94        22.9675   -0.6666   -4.5740 H         1 UNK         0.3041 
     95 H95        25.5563    1.2011   -3.0346 H         1 UNK         0.0784 
     96 H96        23.6537    2.8241   -3.0105 H         1 UNK         0.0793 
     97 H97        22.5264    1.5146   -2.6848 H         1 UNK         0.0793 
     98 H98        23.7622    1.9387   -1.4990 H         1 UNK         0.0793 
     99 H99        23.7285   -0.5446   -1.8438 H         1 UNK         0.3024 
    100 H100       23.9251   -2.7084   -1.5653 H         1 UNK         0.1171 
    101 H101       24.4964   -4.9235   -2.4449 H         1 UNK         0.0786 
    102 H102       24.1272   -3.8677   -3.7971 H         1 UNK         0.0786 
    103 H103       25.8009   -4.2611   -3.4242 H         1 UNK         0.0786 
    104 H104       26.4622   -3.8988   -1.1076 H         1 UNK         0.2977 
    105 H105       27.0075   -0.6910   -5.1811 H         1 UNK         0.3127 
    106 H106       29.5456    0.2518   -5.8376 H         1 UNK         0.0770 
    107 H107       27.3908    1.8685   -4.3893 H         1 UNK         0.0814 
    108 H108       29.1290    2.0479   -4.2442 H         1 UNK         0.0814 
    109 H109       28.3469    0.5998   -3.6287 H         1 UNK         0.0814 
    110 H110       26.4177    1.7429   -6.7284 H         1 UNK         0.2983 
    111 H111       27.4751    3.8769   -8.2669 H         1 UNK         0.0947 
    112 H112       25.1389    4.0132   -9.1680 H         1 UNK         0.0806 
    113 H113       25.1429    3.8260   -7.4207 H         1 UNK         0.0806 
    114 H114       24.7654    2.4490   -8.4530 H         1 UNK         0.0806 
    115 H115       26.6074    0.5373   -9.2229 H         1 UNK         0.3000 
    116 H116       26.9811    0.9719  -12.0455 H         1 UNK         0.0850 
    117 H117       26.7686   -1.5159  -12.1677 H         1 UNK         0.0810 
    118 H118       25.4870   -0.8023  -11.2012 H         1 UNK         0.0810 
    119 H119       26.8351   -1.6169  -10.4129 H         1 UNK         0.0810 
    120 H120       29.0137   -0.6360   -9.5268 H         1 UNK         0.3040 
    121 H121       31.0831   -1.3005  -11.4343 H         1 UNK         0.0766 
    122 H122       30.9669   -1.5271   -8.3925 H         1 UNK         0.0812 
    123 H123       32.2331   -2.2151   -9.4003 H         1 UNK         0.0812 
    124 H124       30.5778   -2.7911   -9.5494 H         1 UNK         0.0812 
    125 H125       30.6968    1.2793   -8.9953 H         1 UNK         0.3205 
    126 H126       31.8633    3.0638   -8.4083 H         1 UNK         0.0754 
    127 H127       32.8523    4.4251  -10.2364 H         1 UNK         0.0769 
    128 H128       31.3065    3.7475  -10.7248 H         1 UNK         0.0769 
    129 H129       32.8076    3.0446  -11.3239 H         1 UNK         0.0769 
    130 H130       33.0433    1.3603   -7.0809 H         1 UNK         0.2981 
    131 H131       35.6493    0.5119   -7.7029 H         1 UNK         0.0541 
    132 H132       34.7583    3.7396   -6.5678 H         1 UNK         0.3459 
    133 H133       36.3948    4.2335   -6.2150 H         1 UNK         0.3459 
    134 H134       34.4657    0.8253   -4.8954 H         1 UNK         0.0612 
    135 H135       35.8489   -0.1323   -5.3241 H         1 UNK         0.0612 
    136 H136       31.7509   -0.2948   -6.6630 H         1 UNK         0.0624 
    137 H137       32.2732    0.3675   -5.1454 H         1 UNK         0.0624 
@<TRIPOS>BOND
     1    1    2 1    
     2    1   72 1    
     3    1   73 1    
     4    1   74 1    
     5    2    3 2    
     6    2    4 am   BACKBONE|DICT|INTERRES
     7    4    5 1    
     8    4   75 1    
     9    5    6 1    
    10    5   35 1    
    11    5   76 1    
    12    6    7 1    
    13    6   77 1    
    14    6   78 1    
    15    7    8 1    
    16    8    9 1    
    17    8   79 1    
    18    8   80 1    
    19    9   10 ar   
    20    9   14 ar   
    21   10   11 ar   
    22   10   81 1    
    23   11   12 ar   
    24   11   71 1    
    25   12   13 ar   
    26   12   82 1    
    27   13   14 ar   
    28   13   15 1    
    29   14   83 1    
    30   15   16 1    
    31   15   84 1    
    32   15   85 1    
    33   16   17 1    
    34   17   18 1    
    35   17   86 1    
    36   17   87 1    
    37   18   19 1    
    38   18   37 1    
    39   18   88 1    
    40   19   20 am   BACKBONE|DICT|INTERRES
    41   19   89 1    
    42   20   21 2    
    43   20   22 1    
    44   22   23 1    
    45   22   24 1    
    46   22   90 1    
    47   23   91 1    
    48   23   92 1    
    49   23   93 1    
    50   24   25 am   BACKBONE|DICT|INTERRES
    51   24   94 1    
    52   25   26 2    
    53   25   27 1    
    54   27   28 1    
    55   27   29 1    
    56   27   95 1    
    57   28   96 1    
    58   28   97 1    
    59   28   98 1    
    60   29   30 am   BACKBONE|DICT|INTERRES
    61   29   99 1    
    62   30   31 2    
    63   30   32 1    
    64   32   33 1    
    65   32   34 1    
    66   32  100 1    
    67   33  101 1    
    68   33  102 1    
    69   33  103 1    
    70   34   35 am   BACKBONE|DICT|INTERRES
    71   34  104 1    
    72   35   36 2    
    73   37   38 2    
    74   37   39 am   BACKBONE|DICT|INTERRES
    75   39   40 1    
    76   39  105 1    
    77   40   41 1    
    78   40   42 1    
    79   40  106 1    
    80   41  107 1    
    81   41  108 1    
    82   41  109 1    
    83   42   43 2    
    84   42   44 am   BACKBONE|DICT|INTERRES
    85   44   45 1    
    86   44  110 1    
    87   45   46 1    
    88   45   47 1    
    89   45  111 1    
    90   46  112 1    
    91   46  113 1    
    92   46  114 1    
    93   47   48 2    
    94   47   49 am   BACKBONE|DICT|INTERRES
    95   49   50 1    
    96   49  115 1    
    97   50   51 1    
    98   50   52 1    
    99   50  116 1    
   100   51  117 1    
   101   51  118 1    
   102   51  119 1    
   103   52   53 2    
   104   52   54 am   BACKBONE|DICT|INTERRES
   105   54   55 1    
   106   54  120 1    
   107   55   56 1    
   108   55   57 1    
   109   55  121 1    
   110   56  122 1    
   111   56  123 1    
   112   56  124 1    
   113   57   58 2    
   114   57   59 am   BACKBONE|DICT|INTERRES
   115   59   60 1    
   116   59  125 1    
   117   60   61 1    
   118   60   62 1    
   119   60  126 1    
   120   61  127 1    
   121   61  128 1    
   122   61  129 1    
   123   62   63 2    
   124   62   64 am   BACKBONE|DICT|INTERRES
   125   64   65 1    
   126   64  130 1    
   127   65   66 1    
   128   65   69 1    
   129   65  131 1    
   130   66   67 am   BACKBONE|DICT|INTERRES
   131   66   68 2    
   132   67  132 1    
   133   67  133 1    
   134   69   70 1    
   135   69  134 1    
   136   69  135 1    
   137   70   71 1    
   138   71  136 1    
   139   71  137 1    
@<TRIPOS>SUBSTRUCTURE
     1 UNK         1 GROUP             0       ****    0 ROOT    
