@<TRIPOS>MOLECULE
3R137
137   139    1
SMALL
USER_CHARGES


@<TRIPOS>ATOM
      1 CA         22.7717   -4.3018   -1.2037 C.3       0 UNK        -0.2020 
      2 C          24.1541   -3.7007   -1.0044 C.2       0 UNK         0.4855 
      3 O          24.2708   -2.5714   -0.5270 O.2       0 UNK        -0.5197 
      4 N          25.2047   -4.4499   -1.3647 N.am      1 UNK        -0.4892 
      5 CA         26.6066   -4.0423   -1.2203 C.3       1 UNK         0.0835 
      6 C6         27.5738   -5.2292   -1.4530 C.3       12 UNK        -0.0855 
      7 S7         29.1541   -5.0005   -0.5666 S.3       12 UNK        -0.2931 
      8 C8         30.3755   -5.5649   -1.7932 C.3       12 UNK         0.0378 
      9 C9         30.5873   -4.5610   -2.9188 C.ar      12 UNK        -0.0802 
     10 C10        31.3633   -3.4167   -2.7036 C.ar      12 UNK        -0.0944 
     11 C11        31.6110   -2.5240   -3.7505 C.ar      12 UNK        -0.0787 
     12 C12        31.0810   -2.7828   -5.0152 C.ar      12 UNK        -0.0862 
     13 C13        30.2871   -3.9112   -5.2424 C.ar      12 UNK        -0.0733 
     14 C14        30.0477   -4.7984   -4.1879 C.ar      12 UNK        -0.0832 
     15 C15        29.6913   -4.1890   -6.6217 C.3       12 UNK         0.0240 
     16 S16        29.0290   -2.7004   -7.4471 S.3       12 UNK        -0.2522 
     17 C17        27.9505   -2.0270   -6.1384 C.3       12 UNK        -0.0967 
     18 CA         26.6643   -1.3625   -6.6781 C.3       5 UNK         0.0660 
     19 N          25.6067   -1.3773   -5.6645 N.am      5 UNK        -0.4015 
     20 C          24.3159   -1.0929   -5.8838 C.2       4 UNK         0.4946 
     21 O          23.8575   -0.7770   -6.9825 O.2       4 UNK        -0.5353 
     22 CA         23.3878   -1.1506   -4.6616 C.3       4 UNK         0.0277 
     23 CB         22.9349   -2.5938   -4.3936 C.3       4 UNK        -0.1981 
     24 N          24.0330   -0.5969   -3.4674 N.am      4 UNK        -0.4209 
     25 C          24.1593    0.7172   -3.2314 C.2       3 UNK         0.4942 
     26 O          23.6641    1.5904   -3.9436 O.2       3 UNK        -0.5208 
     27 CA         25.0009    1.1349   -2.0133 C.3       3 UNK         0.0250 
     28 CB         24.1447    1.1416   -0.7370 C.3       3 UNK        -0.1990 
     29 N          26.1797    0.2886   -1.8122 N.am      3 UNK        -0.4232 
     30 C          27.2263    0.2294   -2.6498 C.2       2 UNK         0.4993 
     31 O          27.3217    0.9037   -3.6729 O.2       2 UNK        -0.5286 
     32 CA         28.3394   -0.7791   -2.3166 C.3       2 UNK         0.0209 
     33 CB         29.4319   -0.1132   -1.4661 C.3       2 UNK        -0.1931 
     34 N          27.8639   -1.9858   -1.6363 N.am      2 UNK        -0.4546 
     35 C          26.9498   -2.8372   -2.1198 C.2       1 UNK         0.5154 
     36 O          26.3822   -2.6910   -3.2074 O.2       1 UNK        -0.5181 
     37 C          26.9606    0.0429   -7.2464 C.2       5 UNK         0.5014 
     38 O          27.5301    0.1290   -8.3329 O.2       5 UNK        -0.5248 
     39 N          26.5745    1.1145   -6.5367 N.am      6 UNK        -0.4434 
     40 CA         26.8005    2.5292   -6.8692 C.3       6 UNK         0.0363 
     41 CB         26.1151    3.4054   -5.8081 C.3       6 UNK        -0.1936 
     42 C          26.3684    2.9790   -8.2799 C.2       6 UNK         0.5081 
     43 O          26.8843    3.9854   -8.7657 O.2       6 UNK        -0.5248 
     44 N          25.4611    2.2317   -8.9251 N.am      7 UNK        -0.4718 
     45 CA         25.0946    2.4024  -10.3348 C.3       7 UNK         0.0273 
     46 CB         23.8748    1.5216  -10.6484 C.3       7 UNK        -0.1935 
     47 C          26.2512    2.0901  -11.3075 C.2       7 UNK         0.5018 
     48 O          26.3181    2.7013  -12.3747 O.2       7 UNK        -0.5186 
     49 N          27.1350    1.1604  -10.9204 N.am      8 UNK        -0.4240 
     50 CA         28.3697    0.8139  -11.6267 C.3       8 UNK         0.0235 
     51 CB         28.5097   -0.7172  -11.6807 C.3       8 UNK        -0.2000 
     52 C          29.5945    1.4344  -10.9349 C.2       8 UNK         0.4941 
     53 O          30.5139    1.8703  -11.6281 O.2       8 UNK        -0.5273 
     54 N          29.5761    1.4635   -9.5918 N.am      9 UNK        -0.4262 
     55 CA         30.6026    1.9825   -8.6807 C.3       9 UNK         0.0264 
     56 CB         30.7269    3.5151   -8.8108 C.3       9 UNK        -0.1955 
     57 C          31.9474    1.2486   -8.8372 C.2       9 UNK         0.5031 
     58 O          32.9868    1.8875   -9.0138 O.2       9 UNK        -0.5390 
     59 N          31.8976   -0.0908   -8.7714 N.am      10 UNK        -0.4204 
     60 CA         33.0227   -1.0014   -9.0247 C.3       10 UNK         0.0237 
     61 CB         32.5327   -2.4553   -8.9249 C.3       10 UNK        -0.1985 
     62 C          34.2653   -0.7908   -8.1363 C.2       10 UNK         0.4970 
     63 O          35.3704   -1.1028   -8.5822 O.2       10 UNK        -0.4914 
     64 N          34.0757   -0.2616   -6.9202 N.am      11 UNK        -0.4285 
     65 CA         35.1651    0.1277   -6.0078 C.3       11 UNK         0.1007 
     66 C          35.8345    1.4905   -6.3583 C.2       11 UNK         0.5703 
     67 N          35.3414    2.2616   -7.3214 N.am      11 UNK        -0.7361 
     68 O          36.8374    1.8530   -5.7474 O.2       11 UNK        -0.4986 
     69 C69        34.7307    0.0789   -4.5177 C.3       12 UNK        -0.0947 
     70 S70        34.1816   -1.5863   -4.0132 S.3       12 UNK        -0.2240 
     71 C71        32.4544   -1.2792   -3.5372 C.3       12 UNK         0.0194 
     72 H72        22.4795   -4.8697   -0.3209 H         1 UNK         0.0906 
     73 H73        22.0324   -3.5166   -1.3588 H         1 UNK         0.0906 
     74 H74        22.7458   -4.9665   -2.0670 H         1 UNK         0.0906 
     75 H75        25.0481   -5.3549   -1.7851 H         1 UNK         0.3140 
     76 H76        26.7098   -3.7169   -0.1821 H         1 UNK         0.1085 
     77 H77        27.1361   -6.1522   -1.0690 H         1 UNK         0.0836 
     78 H78        27.7407   -5.4016   -2.5177 H         1 UNK         0.0836 
     79 H79        31.3260   -5.7327   -1.2845 H         1 UNK         0.0731 
     80 H80        30.0716   -6.5359   -2.1877 H         1 UNK         0.0731 
     81 H81        31.7836   -3.2292   -1.7250 H         1 UNK         0.1312 
     82 H82        31.2833   -2.0945   -5.8231 H         1 UNK         0.1406 
     83 H83        29.4507   -5.6840   -4.3587 H         1 UNK         0.1631 
     84 H84        28.8880   -4.9239   -6.5496 H         1 UNK         0.0717 
     85 H85        30.4604   -4.6309   -7.2562 H         1 UNK         0.0717 
     86 H86        27.6839   -2.8562   -5.4816 H         1 UNK         0.0934 
     87 H87        28.5267   -1.3329   -5.5254 H         1 UNK         0.0934 
     88 H88        26.2944   -1.9643   -7.5112 H         1 UNK         0.0739 
     89 H89        25.8806   -1.6907   -4.7360 H         1 UNK         0.3093 
     90 H90        22.4996   -0.5572   -4.8906 H         1 UNK         0.0818 
     91 H91        22.1905   -2.6283   -3.5993 H         1 UNK         0.0819 
     92 H92        22.4752   -3.0295   -5.2820 H         1 UNK         0.0819 
     93 H93        23.7684   -3.2372   -4.1094 H         1 UNK         0.0819 
     94 H94        24.4850   -1.2498   -2.8400 H         1 UNK         0.3041 
     95 H95        25.3514    2.1540   -2.1920 H         1 UNK         0.0784 
     96 H96        23.2734    1.7872   -0.8559 H         1 UNK         0.0793 
     97 H97        23.7793    0.1444   -0.4885 H         1 UNK         0.0793 
     98 H98        24.7088    1.5153    0.1177 H         1 UNK         0.0793 
     99 H99        26.1746   -0.3189   -1.0051 H         1 UNK         0.3024 
    100 H100       28.7906   -1.0964   -3.2577 H         1 UNK         0.1171 
    101 H101       29.8509    0.7534   -1.9797 H         1 UNK         0.0786 
    102 H102       30.2545   -0.8001   -1.2679 H         1 UNK         0.0786 
    103 H103       29.0442    0.2311   -0.5065 H         1 UNK         0.0786 
    104 H104       28.2996   -2.2028   -0.7509 H         1 UNK         0.2977 
    105 H105       26.1951    0.9430   -5.6141 H         1 UNK         0.3127 
    106 H106       27.8771    2.6973   -6.8038 H         1 UNK         0.0770 
    107 H107       25.0370    3.2410   -5.7881 H         1 UNK         0.0814 
    108 H108       26.2805    4.4654   -6.0061 H         1 UNK         0.0814 
    109 H109       26.5032    3.2023   -4.8101 H         1 UNK         0.0814 
    110 H110       25.0778    1.4290   -8.4445 H         1 UNK         0.2983 
    111 H111       24.8135    3.4471  -10.4858 H         1 UNK         0.0947 
    112 H112       23.5645    1.6403  -11.6876 H         1 UNK         0.0806 
    113 H113       23.0215    1.7882  -10.0244 H         1 UNK         0.0806 
    114 H114       24.0889    0.4636  -10.4902 H         1 UNK         0.0806 
    115 H115       27.0174    0.7396  -10.0021 H         1 UNK         0.3000 
    116 H116       28.3366    1.1902  -12.6515 H         1 UNK         0.0850 
    117 H117       29.4251   -1.0076  -12.1981 H         1 UNK         0.0810 
    118 H118       27.6762   -1.1706  -12.2173 H         1 UNK         0.0810 
    119 H119       28.5439   -1.1584  -10.6832 H         1 UNK         0.0810 
    120 H120       28.7840    1.0147   -9.1311 H         1 UNK         0.3040 
    121 H121       30.2516    1.7678   -7.6701 H         1 UNK         0.0766 
    122 H122       31.4133    3.9158   -8.0640 H         1 UNK         0.0812 
    123 H123       29.7641    4.0042   -8.6627 H         1 UNK         0.0812 
    124 H124       31.1050    3.8097   -9.7903 H         1 UNK         0.0812 
    125 H125       30.9960   -0.5238   -8.6277 H         1 UNK         0.3205 
    126 H126       33.3401   -0.8245  -10.0544 H         1 UNK         0.0754 
    127 H127       33.3288   -3.1538   -9.1867 H         1 UNK         0.0769 
    128 H128       31.7017   -2.6457   -9.6046 H         1 UNK         0.0769 
    129 H129       32.2055   -2.7032   -7.9156 H         1 UNK         0.0769 
    130 H130       33.1408   -0.0195   -6.6334 H         1 UNK         0.2981 
    131 H131       35.9618   -0.6104   -6.1201 H         1 UNK         0.0541 
    132 H132       34.5220    1.9898   -7.8572 H         1 UNK         0.3459 
    133 H133       35.8002    3.1340   -7.5284 H         1 UNK         0.3459 
    134 H134       33.9494    0.8149   -4.3218 H         1 UNK         0.0612 
    135 H135       35.5654    0.3473   -3.8675 H         1 UNK         0.0612 
    136 H136       32.4210   -0.9603   -2.4947 H         1 UNK         0.0624 
    137 H137       32.0380   -0.4608   -4.1262 H         1 UNK         0.0624 
@<TRIPOS>BOND
     1    1    2 1    
     2    1   72 1    
     3    1   73 1    
     4    1   74 1    
     5    2    3 2    
     6    2    4 am   BACKBONE|DICT|INTERRES
     7    4    5 1    
     8    4   75 1    
     9    5    6 1    
    10    5   35 1    
    11    5   76 1    
    12    6    7 1    
    13    6   77 1    
    14    6   78 1    
    15    7    8 1    
    16    8    9 1    
    17    8   79 1    
    18    8   80 1    
    19    9   10 ar   
    20    9   14 ar   
    21   10   11 ar   
    22   10   81 1    
    23   11   12 ar   
    24   11   71 1    
    25   12   13 ar   
    26   12   82 1    
    27   13   14 ar   
    28   13   15 1    
    29   14   83 1    
    30   15   16 1    
    31   15   84 1    
    32   15   85 1    
    33   16   17 1    
    34   17   18 1    
    35   17   86 1    
    36   17   87 1    
    37   18   19 1    
    38   18   37 1    
    39   18   88 1    
    40   19   20 am   BACKBONE|DICT|INTERRES
    41   19   89 1    
    42   20   21 2    
    43   20   22 1    
    44   22   23 1    
    45   22   24 1    
    46   22   90 1    
    47   23   91 1    
    48   23   92 1    
    49   23   93 1    
    50   24   25 am   BACKBONE|DICT|INTERRES
    51   24   94 1    
    52   25   26 2    
    53   25   27 1    
    54   27   28 1    
    55   27   29 1    
    56   27   95 1    
    57   28   96 1    
    58   28   97 1    
    59   28   98 1    
    60   29   30 am   BACKBONE|DICT|INTERRES
    61   29   99 1    
    62   30   31 2    
    63   30   32 1    
    64   32   33 1    
    65   32   34 1    
    66   32  100 1    
    67   33  101 1    
    68   33  102 1    
    69   33  103 1    
    70   34   35 am   BACKBONE|DICT|INTERRES
    71   34  104 1    
    72   35   36 2    
    73   37   38 2    
    74   37   39 am   BACKBONE|DICT|INTERRES
    75   39   40 1    
    76   39  105 1    
    77   40   41 1    
    78   40   42 1    
    79   40  106 1    
    80   41  107 1    
    81   41  108 1    
    82   41  109 1    
    83   42   43 2    
    84   42   44 am   BACKBONE|DICT|INTERRES
    85   44   45 1    
    86   44  110 1    
    87   45   46 1    
    88   45   47 1    
    89   45  111 1    
    90   46  112 1    
    91   46  113 1    
    92   46  114 1    
    93   47   48 2    
    94   47   49 am   BACKBONE|DICT|INTERRES
    95   49   50 1    
    96   49  115 1    
    97   50   51 1    
    98   50   52 1    
    99   50  116 1    
   100   51  117 1    
   101   51  118 1    
   102   51  119 1    
   103   52   53 2    
   104   52   54 am   BACKBONE|DICT|INTERRES
   105   54   55 1    
   106   54  120 1    
   107   55   56 1    
   108   55   57 1    
   109   55  121 1    
   110   56  122 1    
   111   56  123 1    
   112   56  124 1    
   113   57   58 2    
   114   57   59 am   BACKBONE|DICT|INTERRES
   115   59   60 1    
   116   59  125 1    
   117   60   61 1    
   118   60   62 1    
   119   60  126 1    
   120   61  127 1    
   121   61  128 1    
   122   61  129 1    
   123   62   63 2    
   124   62   64 am   BACKBONE|DICT|INTERRES
   125   64   65 1    
   126   64  130 1    
   127   65   66 1    
   128   65   69 1    
   129   65  131 1    
   130   66   67 am   BACKBONE|DICT|INTERRES
   131   66   68 2    
   132   67  132 1    
   133   67  133 1    
   134   69   70 1    
   135   69  134 1    
   136   69  135 1    
   137   70   71 1    
   138   71  136 1    
   139   71  137 1    
@<TRIPOS>SUBSTRUCTURE
     1 UNK         1 GROUP             0       ****    0 ROOT    
