@<TRIPOS>MOLECULE
3R137
137   139    1
SMALL
USER_CHARGES


@<TRIPOS>ATOM
      1 CA         30.7938   -0.1768    2.6962 C.3       0 UNK        -0.2020 
      2 C          30.1902   -0.1666    1.2996 C.2       0 UNK         0.4855 
      3 O          29.4880    0.7801    0.9426 O.2       0 UNK        -0.5197 
      4 N          30.4663   -1.2068    0.5046 N.am      1 UNK        -0.4892 
      5 CA         29.9158   -1.4086   -0.8389 C.3       1 UNK         0.0835 
      6 C6         30.7590   -2.4096   -1.6680 C.3       12 UNK        -0.0855 
      7 S7         31.2459   -3.9525   -0.8077 S.3       12 UNK        -0.2931 
      8 C8         30.3940   -5.2572   -1.7677 C.3       12 UNK         0.0378 
      9 C9         30.6073   -5.1774   -3.2795 C.ar      12 UNK        -0.0802 
     10 C10        31.8442   -4.8185   -3.8308 C.ar      12 UNK        -0.0944 
     11 C11        31.9806   -4.6355   -5.2108 C.ar      12 UNK        -0.0787 
     12 C12        30.8905   -4.8792   -6.0495 C.ar      12 UNK        -0.0862 
     13 C13        29.6634   -5.2805   -5.5177 C.ar      12 UNK        -0.0733 
     14 C14        29.5295   -5.4303   -4.1340 C.ar      12 UNK        -0.0832 
     15 C15        28.4766   -5.5251   -6.4390 C.3       12 UNK         0.0240 
     16 S16        27.0866   -4.4094   -6.0729 S.3       12 UNK        -0.2522 
     17 C17        27.8124   -2.7597   -6.3778 C.3       12 UNK        -0.0967 
     18 CA         26.8954   -1.8962   -7.2757 C.3       5 UNK         0.0660 
     19 N          25.5503   -1.7447   -6.7197 N.am      5 UNK        -0.4015 
     20 C          24.4439   -1.5235   -7.4405 C.2       4 UNK         0.4946 
     21 O          24.4270   -1.4533   -8.6695 O.2       4 UNK        -0.5353 
     22 CA         23.1294   -1.3454   -6.6600 C.3       4 UNK         0.0277 
     23 CB         22.4050   -2.6937   -6.5164 C.3       4 UNK        -0.1981 
     24 N          23.3247   -0.7555   -5.3328 N.am      4 UNK        -0.4209 
     25 C          23.7035    0.5123   -5.1187 C.2       3 UNK         0.4942 
     26 O          23.8786    1.3363   -6.0161 O.2       3 UNK        -0.5208 
     27 CA         23.9645    0.9188   -3.6575 C.3       3 UNK         0.0250 
     28 CB         22.6654    1.4056   -2.9955 C.3       3 UNK        -0.1990 
     29 N          24.5727   -0.1334   -2.8307 N.am      3 UNK        -0.4232 
     30 C          25.7536   -0.7168   -3.0787 C.2       2 UNK         0.4993 
     31 O          26.4176   -0.5156   -4.0972 O.2       2 UNK        -0.5286 
     32 CA         26.2738   -1.7131   -2.0411 C.3       2 UNK         0.0209 
     33 CB         25.9752   -3.1612   -2.4658 C.3       2 UNK        -0.1931 
     34 N          27.7147   -1.5164   -1.9042 N.am      2 UNK        -0.4546 
     35 C          28.4228   -1.7965   -0.8043 C.2       1 UNK         0.5154 
     36 O          27.9428   -2.3371    0.1969 O.2       1 UNK        -0.5181 
     37 C          27.5056   -0.5104   -7.5412 C.2       5 UNK         0.5014 
     38 O          28.0442   -0.2879   -8.6255 O.2       5 UNK        -0.5248 
     39 N          27.3478    0.4129   -6.5798 N.am      6 UNK        -0.4434 
     40 CA         27.7826    1.8149   -6.6285 C.3       6 UNK         0.0363 
     41 CB         27.4001    2.4936   -5.3030 C.3       6 UNK        -0.1936 
     42 C          27.2120    2.6285   -7.8061 C.2       6 UNK         0.5081 
     43 O          27.7865    3.6536   -8.1723 O.2       6 UNK        -0.5248 
     44 N          26.0927    2.1675   -8.3781 N.am      7 UNK        -0.4718 
     45 CA         25.4725    2.7227   -9.5800 C.3       7 UNK         0.0273 
     46 CB         24.0493    2.1546   -9.7046 C.3       7 UNK        -0.1935 
     47 C          26.2720    2.4607  -10.8726 C.2       7 UNK         0.5018 
     48 O          26.0174    3.1451  -11.8651 O.2       7 UNK        -0.5186 
     49 N          27.1928    1.4847  -10.8596 N.am      8 UNK        -0.4240 
     50 CA         27.9865    1.0754  -12.0217 C.3       8 UNK         0.0235 
     51 CB         27.4856   -0.2904  -12.5224 C.3       8 UNK        -0.2000 
     52 C          29.4907    1.0207  -11.7175 C.2       8 UNK         0.4941 
     53 O          30.2841    1.4845  -12.5383 O.2       8 UNK        -0.5273 
     54 N          29.8628    0.4446  -10.5694 N.am      9 UNK        -0.4262 
     55 CA         31.2423    0.2744  -10.1160 C.3       9 UNK         0.0264 
     56 CB         31.3595   -1.1141   -9.4577 C.3       9 UNK        -0.1955 
     57 C          31.6246    1.3727   -9.1129 C.2       9 UNK         0.5031 
     58 O          30.7588    2.0967   -8.6195 O.2       9 UNK        -0.5390 
     59 N          32.9207    1.4364   -8.7772 N.am      10 UNK        -0.4204 
     60 CA         33.4619    2.2872   -7.7078 C.3       10 UNK         0.0237 
     61 CB         34.9946    2.3295   -7.8251 C.3       10 UNK        -0.1985 
     62 C          33.0426    1.8392   -6.2914 C.2       10 UNK         0.4970 
     63 O          33.1417    2.6325   -5.3546 O.2       10 UNK        -0.4914 
     64 N          32.5830    0.5880   -6.1671 N.am      11 UNK        -0.4285 
     65 CA         32.0593   -0.0833   -4.9677 C.3       11 UNK         0.1007 
     66 C          30.7269    0.5097   -4.4057 C.2       11 UNK         0.5703 
     67 N          30.6010    1.8247   -4.3106 N.am      11 UNK        -0.7361 
     68 O          29.8099   -0.2155   -4.0244 O.2       11 UNK        -0.4986 
     69 C69        31.9880   -1.6117   -5.2204 C.3       12 UNK        -0.0947 
     70 S70        33.6421   -2.3833   -5.2939 S.3       12 UNK        -0.2240 
     71 C71        33.2818   -4.1037   -5.7973 C.3       12 UNK         0.0194 
     72 H72        31.4240    0.7006    2.8395 H         1 UNK         0.0906 
     73 H73        30.0035   -0.1552    3.4461 H         1 UNK         0.0906 
     74 H74        31.4027   -1.0637    2.8711 H         1 UNK         0.0906 
     75 H75        31.0183   -1.9784    0.8536 H         1 UNK         0.3140 
     76 H76        29.9671   -0.4436   -1.3488 H         1 UNK         0.1085 
     77 H77        31.6839   -1.9178   -1.9730 H         1 UNK         0.0836 
     78 H78        30.2420   -2.6455   -2.5985 H         1 UNK         0.0836 
     79 H79        30.7355   -6.2316   -1.4164 H         1 UNK         0.0731 
     80 H80        29.3296   -5.1994   -1.5333 H         1 UNK         0.0731 
     81 H81        32.6857   -4.6131   -3.1836 H         1 UNK         0.1312 
     82 H82        30.9911   -4.7333   -7.1164 H         1 UNK         0.1406 
     83 H83        28.5696   -5.7144   -3.7237 H         1 UNK         0.1631 
     84 H84        28.1421   -6.5566   -6.3221 H         1 UNK         0.0717 
     85 H85        28.7586   -5.4090   -7.4867 H         1 UNK         0.0717 
     86 H86        27.9920   -2.2800   -5.4132 H         1 UNK         0.0934 
     87 H87        28.7922   -2.8722   -6.8454 H         1 UNK         0.0934 
     88 H88        26.8132   -2.4020   -8.2407 H         1 UNK         0.0739 
     89 H89        25.4895   -1.7372   -5.7110 H         1 UNK         0.3093 
     90 H90        22.4922   -0.6733   -7.2392 H         1 UNK         0.0818 
     91 H91        21.4362   -2.5750   -6.0309 H         1 UNK         0.0819 
     92 H92        22.2224   -3.1431   -7.4937 H         1 UNK         0.0819 
     93 H93        22.9892   -3.4079   -5.9344 H         1 UNK         0.0819 
     94 H94        23.1912   -1.3591   -4.5345 H         1 UNK         0.3041 
     95 H95        24.6650    1.7557   -3.6772 H         1 UNK         0.0784 
     96 H96        22.2046    2.2031   -3.5806 H         1 UNK         0.0793 
     97 H97        21.9319    0.6036   -2.9035 H         1 UNK         0.0793 
     98 H98        22.8529    1.8065   -1.9992 H         1 UNK         0.0793 
     99 H99        24.0813   -0.3723   -1.9809 H         1 UNK         0.3024 
    100 H100       25.7896   -1.5079   -1.0834 H         1 UNK         0.1171 
    101 H101       24.9070   -3.3158   -2.6222 H         1 UNK         0.0786 
    102 H102       26.2977   -3.8720   -1.7048 H         1 UNK         0.0786 
    103 H103       26.4850   -3.4166   -3.3941 H         1 UNK         0.0786 
    104 H104       28.1594   -1.0596   -2.6965 H         1 UNK         0.2977 
    105 H105       26.9310    0.1135   -5.6982 H         1 UNK         0.3127 
    106 H106       28.8698    1.8131   -6.7220 H         1 UNK         0.0770 
    107 H107       26.3195    2.6045   -5.2113 H         1 UNK         0.0814 
    108 H108       27.8368    3.4909   -5.2367 H         1 UNK         0.0814 
    109 H109       27.7480    1.9233   -4.4422 H         1 UNK         0.0814 
    110 H110       25.6544    1.3521   -7.9721 H         1 UNK         0.2983 
    111 H111       25.4012    3.8055   -9.4558 H         1 UNK         0.0947 
    112 H112       23.5291    2.5860  -10.5610 H         1 UNK         0.0806 
    113 H113       23.4537    2.3763   -8.8184 H         1 UNK         0.0806 
    114 H114       24.0585    1.0723   -9.8396 H         1 UNK         0.0806 
    115 H115       27.3606    0.9860   -9.9911 H         1 UNK         0.3000 
    116 H116       27.8625    1.7947  -12.8341 H         1 UNK         0.0850 
    117 H117       28.0683   -0.6318  -13.3791 H         1 UNK         0.0810 
    118 H118       26.4441   -0.2361  -12.8398 H         1 UNK         0.0810 
    119 H119       27.5593   -1.0560  -11.7487 H         1 UNK         0.0810 
    120 H120       29.1505    0.1487   -9.9026 H         1 UNK         0.3040 
    121 H121       31.9278    0.3230  -10.9649 H         1 UNK         0.0766 
    122 H122       32.3840   -1.3304   -9.1532 H         1 UNK         0.0812 
    123 H123       31.0603   -1.9028  -10.1483 H         1 UNK         0.0812 
    124 H124       30.7285   -1.1952   -8.5713 H         1 UNK         0.0812 
    125 H125       33.5757    0.8226   -9.2414 H         1 UNK         0.3205 
    126 H126       33.0788    3.2996   -7.8530 H         1 UNK         0.0754 
    127 H127       35.4265    2.9823   -7.0649 H         1 UNK         0.0769 
    128 H128       35.3085    2.7153   -8.7952 H         1 UNK         0.0769 
    129 H129       35.4380    1.3413   -7.6952 H         1 UNK         0.0769 
    130 H130       32.5536    0.0302   -7.0048 H         1 UNK         0.2981 
    131 H131       32.7828    0.0787   -4.1669 H         1 UNK         0.0541 
    132 H132       31.3741    2.4161   -4.5938 H         1 UNK         0.3459 
    133 H133       29.7593    2.2221   -3.9304 H         1 UNK         0.3459 
    134 H134       31.4367   -1.8305   -6.1365 H         1 UNK         0.0612 
    135 H135       31.4473   -2.1063   -4.4177 H         1 UNK         0.0612 
    136 H136       34.1083   -4.7443   -5.4872 H         1 UNK         0.0624 
    137 H137       33.2557   -4.1438   -6.8873 H         1 UNK         0.0624 
@<TRIPOS>BOND
     1    1    2 1    
     2    1   72 1    
     3    1   73 1    
     4    1   74 1    
     5    2    3 2    
     6    2    4 am   BACKBONE|DICT|INTERRES
     7    4    5 1    
     8    4   75 1    
     9    5    6 1    
    10    5   35 1    
    11    5   76 1    
    12    6    7 1    
    13    6   77 1    
    14    6   78 1    
    15    7    8 1    
    16    8    9 1    
    17    8   79 1    
    18    8   80 1    
    19    9   10 ar   
    20    9   14 ar   
    21   10   11 ar   
    22   10   81 1    
    23   11   12 ar   
    24   11   71 1    
    25   12   13 ar   
    26   12   82 1    
    27   13   14 ar   
    28   13   15 1    
    29   14   83 1    
    30   15   16 1    
    31   15   84 1    
    32   15   85 1    
    33   16   17 1    
    34   17   18 1    
    35   17   86 1    
    36   17   87 1    
    37   18   19 1    
    38   18   37 1    
    39   18   88 1    
    40   19   20 am   BACKBONE|DICT|INTERRES
    41   19   89 1    
    42   20   21 2    
    43   20   22 1    
    44   22   23 1    
    45   22   24 1    
    46   22   90 1    
    47   23   91 1    
    48   23   92 1    
    49   23   93 1    
    50   24   25 am   BACKBONE|DICT|INTERRES
    51   24   94 1    
    52   25   26 2    
    53   25   27 1    
    54   27   28 1    
    55   27   29 1    
    56   27   95 1    
    57   28   96 1    
    58   28   97 1    
    59   28   98 1    
    60   29   30 am   BACKBONE|DICT|INTERRES
    61   29   99 1    
    62   30   31 2    
    63   30   32 1    
    64   32   33 1    
    65   32   34 1    
    66   32  100 1    
    67   33  101 1    
    68   33  102 1    
    69   33  103 1    
    70   34   35 am   BACKBONE|DICT|INTERRES
    71   34  104 1    
    72   35   36 2    
    73   37   38 2    
    74   37   39 am   BACKBONE|DICT|INTERRES
    75   39   40 1    
    76   39  105 1    
    77   40   41 1    
    78   40   42 1    
    79   40  106 1    
    80   41  107 1    
    81   41  108 1    
    82   41  109 1    
    83   42   43 2    
    84   42   44 am   BACKBONE|DICT|INTERRES
    85   44   45 1    
    86   44  110 1    
    87   45   46 1    
    88   45   47 1    
    89   45  111 1    
    90   46  112 1    
    91   46  113 1    
    92   46  114 1    
    93   47   48 2    
    94   47   49 am   BACKBONE|DICT|INTERRES
    95   49   50 1    
    96   49  115 1    
    97   50   51 1    
    98   50   52 1    
    99   50  116 1    
   100   51  117 1    
   101   51  118 1    
   102   51  119 1    
   103   52   53 2    
   104   52   54 am   BACKBONE|DICT|INTERRES
   105   54   55 1    
   106   54  120 1    
   107   55   56 1    
   108   55   57 1    
   109   55  121 1    
   110   56  122 1    
   111   56  123 1    
   112   56  124 1    
   113   57   58 2    
   114   57   59 am   BACKBONE|DICT|INTERRES
   115   59   60 1    
   116   59  125 1    
   117   60   61 1    
   118   60   62 1    
   119   60  126 1    
   120   61  127 1    
   121   61  128 1    
   122   61  129 1    
   123   62   63 2    
   124   62   64 am   BACKBONE|DICT|INTERRES
   125   64   65 1    
   126   64  130 1    
   127   65   66 1    
   128   65   69 1    
   129   65  131 1    
   130   66   67 am   BACKBONE|DICT|INTERRES
   131   66   68 2    
   132   67  132 1    
   133   67  133 1    
   134   69   70 1    
   135   69  134 1    
   136   69  135 1    
   137   70   71 1    
   138   71  136 1    
   139   71  137 1    
@<TRIPOS>SUBSTRUCTURE
     1 UNK         1 GROUP             0       ****    0 ROOT    
