@<TRIPOS>MOLECULE
3R137
137   139    1
SMALL
USER_CHARGES


@<TRIPOS>ATOM
      1 CA         26.5669    0.7738  -10.4846 C.3       0 UNK        -0.2020 
      2 C          26.0015   -0.5704  -10.0596 C.2       0 UNK         0.4855 
      3 O          25.0936   -1.0769  -10.7189 O.2       0 UNK        -0.5197 
      4 N          26.5177   -1.1546   -8.9678 N.am      1 UNK        -0.4892 
      5 CA         26.0240   -2.4293   -8.4236 C.3       1 UNK         0.0835 
      6 C6         27.0984   -3.1996   -7.6178 C.3       12 UNK        -0.0855 
      7 S7         27.8090   -2.2728   -6.2152 S.3       12 UNK        -0.2931 
      8 C8         29.5785   -2.3680   -6.6268 C.3       12 UNK         0.0378 
      9 C9         30.4186   -1.7077   -5.5498 C.ar      12 UNK        -0.0802 
     10 C10        30.9169   -0.4181   -5.7384 C.ar      12 UNK        -0.0944 
     11 C11        31.6714    0.2085   -4.7427 C.ar      12 UNK        -0.0787 
     12 C12        31.8932   -0.4546   -3.5331 C.ar      12 UNK        -0.0862 
     13 C13        31.3708   -1.7345   -3.3224 C.ar      12 UNK        -0.0733 
     14 C14        30.6687   -2.3728   -4.3483 C.ar      12 UNK        -0.0832 
     15 C15        31.4903   -2.3954   -1.9586 C.3       12 UNK         0.0240 
     16 S16        29.8570   -2.5939   -1.1673 S.3       12 UNK        -0.2522 
     17 C17        29.1428   -0.9115   -1.2930 C.3       12 UNK        -0.0967 
     18 CA         28.0410   -0.7854   -2.3940 C.3       5 UNK         0.0660 
     19 N          26.9676   -1.7779   -2.2467 N.am      5 UNK        -0.4015 
     20 C          26.1603   -1.9145   -1.1866 C.2       4 UNK         0.4946 
     21 O          26.1194   -1.1320   -0.2347 O.2       4 UNK        -0.5353 
     22 CA         25.2052   -3.1109   -1.2112 C.3       4 UNK         0.0277 
     23 CB         25.0630   -3.7760    0.1703 C.3       4 UNK        -0.1981 
     24 N          23.9172   -2.5942   -1.6429 N.am      4 UNK        -0.4209 
     25 C          23.1621   -3.1132   -2.6145 C.2       3 UNK         0.4942 
     26 O          23.3692   -4.2071   -3.1429 O.2       3 UNK        -0.5208 
     27 CA         21.9899   -2.2474   -3.1149 C.3       3 UNK         0.0250 
     28 CB         21.6487   -1.0494   -2.1996 C.3       3 UNK        -0.1990 
     29 N          22.2019   -1.7769   -4.4893 N.am      3 UNK        -0.4232 
     30 C          23.2904   -1.1743   -4.9948 C.2       2 UNK         0.4993 
     31 O          24.3236   -0.9258   -4.3636 O.2       2 UNK        -0.5286 
     32 CA         23.1783   -0.7168   -6.4554 C.3       2 UNK         0.0209 
     33 CB         22.9288    0.7980   -6.5273 C.3       2 UNK        -0.1931 
     34 N          24.3901   -1.0433   -7.2025 N.am      2 UNK        -0.4546 
     35 C          24.7050   -2.2717   -7.6359 C.2       1 UNK         0.5154 
     36 O          23.9835   -3.2566   -7.4658 O.2       1 UNK        -0.5181 
     37 C          27.5216    0.6665   -2.5403 C.2       5 UNK         0.5014 
     38 O          28.2448    1.5987   -2.1811 O.2       5 UNK        -0.5248 
     39 N          26.2924    0.8606   -3.0483 N.am      6 UNK        -0.4434 
     40 CA         25.6515    2.1805   -3.1162 C.3       6 UNK         0.0363 
     41 CB         24.1430    2.0397   -2.8538 C.3       6 UNK        -0.1936 
     42 C          25.9150    2.9463   -4.4256 C.2       6 UNK         0.5081 
     43 O          25.5741    4.1287   -4.4871 O.2       6 UNK        -0.5248 
     44 N          26.5040    2.3035   -5.4431 N.am      7 UNK        -0.4718 
     45 CA         26.8651    2.9367   -6.7131 C.3       7 UNK         0.0273 
     46 CB         25.6990    2.8353   -7.7100 C.3       7 UNK        -0.1935 
     47 C          28.1314    2.2803   -7.2693 C.2       7 UNK         0.5018 
     48 O          28.2493    1.0548   -7.2098 O.2       7 UNK        -0.5186 
     49 N          29.0408    3.1075   -7.8019 N.am      8 UNK        -0.4240 
     50 CA         30.3643    2.7129   -8.2852 C.3       8 UNK         0.0235 
     51 CB         31.2041    3.9707   -8.5615 C.3       8 UNK        -0.2000 
     52 C          30.3159    1.8064   -9.5250 C.2       8 UNK         0.4941 
     53 O          29.7201    2.1903  -10.5331 O.2       8 UNK        -0.5273 
     54 N          30.9803    0.6492   -9.4322 N.am      9 UNK        -0.4262 
     55 CA         31.1319   -0.3530  -10.4833 C.3       9 UNK         0.0264 
     56 CB         29.7838   -1.0266  -10.8183 C.3       9 UNK        -0.1955 
     57 C          32.1737   -1.3667   -9.9979 C.2       9 UNK         0.5031 
     58 O          31.7998   -2.3723   -9.3931 O.2       9 UNK        -0.5390 
     59 N          33.4579   -1.0534  -10.2300 N.am      10 UNK        -0.4204 
     60 CA         34.6431   -1.8304   -9.8331 C.3       10 UNK         0.0237 
     61 CB         34.7191   -3.1553  -10.6236 C.3       10 UNK        -0.1985 
     62 C          34.7245   -2.0329   -8.3064 C.2       10 UNK         0.4970 
     63 O          34.7204   -3.1690   -7.8280 O.2       10 UNK        -0.4914 
     64 N          34.7616   -0.9076   -7.5812 N.am      11 UNK        -0.4285 
     65 CA         34.7872   -0.8232   -6.1127 C.3       11 UNK         0.1007 
     66 C          35.9633   -1.6009   -5.4600 C.2       11 UNK         0.5703 
     67 N          35.7274   -2.2472   -4.3261 N.am      11 UNK        -0.7361 
     68 O          37.0928   -1.5808   -5.9468 O.2       11 UNK        -0.4986 
     69 C69        34.7990    0.6528   -5.6313 C.3       12 UNK        -0.0947 
     70 S70        33.4383    1.6535   -6.3210 S.3       12 UNK        -0.2240 
     71 C71        32.2241    1.6089   -4.9639 C.3       12 UNK         0.0194 
     72 H72        26.9489    0.7179  -11.5032 H         1 UNK         0.0906 
     73 H73        25.7882    1.5348  -10.4599 H         1 UNK         0.0906 
     74 H74        27.3800    1.0924   -9.8365 H         1 UNK         0.0906 
     75 H75        27.2451   -0.6955   -8.4293 H         1 UNK         0.3140 
     76 H76        25.7714   -3.0695   -9.2724 H         1 UNK         0.1085 
     77 H77        27.8993   -3.4948   -8.2976 H         1 UNK         0.0836 
     78 H78        26.6900   -4.1371   -7.2351 H         1 UNK         0.0836 
     79 H79        29.7499   -1.8880   -7.5911 H         1 UNK         0.0731 
     80 H80        29.8782   -3.4111   -6.7389 H         1 UNK         0.0731 
     81 H81        30.7067    0.0967   -6.6613 H         1 UNK         0.1312 
     82 H82        32.4426    0.0394   -2.7433 H         1 UNK         0.1406 
     83 H83        30.2560   -3.3593   -4.1849 H         1 UNK         0.1631 
     84 H84        32.1358   -1.8147   -1.2977 H         1 UNK         0.0717 
     85 H85        31.9579   -3.3748   -2.0676 H         1 UNK         0.0717 
     86 H86        28.7354   -0.6462   -0.3162 H         1 UNK         0.0934 
     87 H87        29.9500   -0.1990   -1.4684 H         1 UNK         0.0934 
     88 H88        28.5070   -1.0040   -3.3539 H         1 UNK         0.0739 
     89 H89        26.8795   -2.4332   -3.0107 H         1 UNK         0.3093 
     90 H90        25.5873   -3.8521   -1.9172 H         1 UNK         0.0818 
     91 H91        24.6610   -3.0881    0.9152 H         1 UNK         0.0819 
     92 H92        24.4010   -4.6407    0.1241 H         1 UNK         0.0819 
     93 H93        26.0302   -4.1247    0.5344 H         1 UNK         0.0819 
     94 H94        23.6869   -1.6720   -1.2988 H         1 UNK         0.3041 
     95 H95        21.1180   -2.9031   -3.1384 H         1 UNK         0.0784 
     96 H96        21.4475   -1.3744   -1.1778 H         1 UNK         0.0793 
     97 H97        22.4519   -0.3141   -2.1672 H         1 UNK         0.0793 
     98 H98        20.7531   -0.5359   -2.5496 H         1 UNK         0.0793 
     99 H99        21.4292   -1.9506   -5.1169 H         1 UNK         0.3024 
    100 H100       22.3364   -1.2264   -6.9300 H         1 UNK         0.1171 
    101 H101       22.8252    1.1362   -7.5585 H         1 UNK         0.0786 
    102 H102       22.0105    1.0678   -6.0041 H         1 UNK         0.0786 
    103 H103       23.7405    1.3618   -6.0681 H         1 UNK         0.0786 
    104 H104       25.0639   -0.3058   -7.3390 H         1 UNK         0.2977 
    105 H105       25.7423    0.0708   -3.3797 H         1 UNK         0.3127 
    106 H106       26.0464    2.8067   -2.3130 H         1 UNK         0.0770 
    107 H107       23.6404    1.4777   -3.6383 H         1 UNK         0.0814 
    108 H108       23.6638    3.0184   -2.8047 H         1 UNK         0.0814 
    109 H109       23.9544    1.5427   -1.9026 H         1 UNK         0.0814 
    110 H110       26.8109    1.3460   -5.3268 H         1 UNK         0.2983 
    111 H111       27.0831    3.9929   -6.5378 H         1 UNK         0.0947 
    112 H112       25.9558    3.3062   -8.6596 H         1 UNK         0.0806 
    113 H113       24.8094    3.3391   -7.3318 H         1 UNK         0.0806 
    114 H114       25.4358    1.7986   -7.9160 H         1 UNK         0.0806 
    115 H115       28.8262    4.0925   -7.8565 H         1 UNK         0.3000 
    116 H116       30.8449    2.1688   -7.4761 H         1 UNK         0.0850 
    117 H117       32.2075    3.7032   -8.8960 H         1 UNK         0.0810 
    118 H118       31.3173    4.5786   -7.6636 H         1 UNK         0.0810 
    119 H119       30.7566    4.5931   -9.3376 H         1 UNK         0.0810 
    120 H120       31.4637    0.4319   -8.5718 H         1 UNK         0.3040 
    121 H121       31.5116    0.1309  -11.3857 H         1 UNK         0.0766 
    122 H122       29.9263   -1.8728  -11.4915 H         1 UNK         0.0812 
    123 H123       29.1097   -0.3345  -11.3194 H         1 UNK         0.0812 
    124 H124       29.2833   -1.4006   -9.9253 H         1 UNK         0.0812 
    125 H125       33.6509   -0.1861  -10.7131 H         1 UNK         0.3205 
    126 H126       35.5150   -1.2363  -10.1120 H         1 UNK         0.0754 
    127 H127       33.8860   -3.8188  -10.3887 H         1 UNK         0.0769 
    128 H128       35.6383   -3.6947  -10.3920 H         1 UNK         0.0769 
    129 H129       34.7110   -2.9762  -11.6987 H         1 UNK         0.0769 
    130 H130       34.7675   -0.0211   -8.0617 H         1 UNK         0.2981 
    131 H131       33.8600   -1.2856   -5.7703 H         1 UNK         0.0541 
    132 H132       34.8068   -2.2596   -3.9162 H         1 UNK         0.3459 
    133 H133       36.4825   -2.7430   -3.8789 H         1 UNK         0.3459 
    134 H134       35.7364    1.1350   -5.9150 H         1 UNK         0.0612 
    135 H135       34.7544    0.7005   -4.5416 H         1 UNK         0.0612 
    136 H136       31.4003    2.2853   -5.1943 H         1 UNK         0.0624 
    137 H137       32.6893    1.9965   -4.0564 H         1 UNK         0.0624 
@<TRIPOS>BOND
     1    1    2 1    
     2    1   72 1    
     3    1   73 1    
     4    1   74 1    
     5    2    3 2    
     6    2    4 am   BACKBONE|DICT|INTERRES
     7    4    5 1    
     8    4   75 1    
     9    5    6 1    
    10    5   35 1    
    11    5   76 1    
    12    6    7 1    
    13    6   77 1    
    14    6   78 1    
    15    7    8 1    
    16    8    9 1    
    17    8   79 1    
    18    8   80 1    
    19    9   10 ar   
    20    9   14 ar   
    21   10   11 ar   
    22   10   81 1    
    23   11   12 ar   
    24   11   71 1    
    25   12   13 ar   
    26   12   82 1    
    27   13   14 ar   
    28   13   15 1    
    29   14   83 1    
    30   15   16 1    
    31   15   84 1    
    32   15   85 1    
    33   16   17 1    
    34   17   18 1    
    35   17   86 1    
    36   17   87 1    
    37   18   19 1    
    38   18   37 1    
    39   18   88 1    
    40   19   20 am   BACKBONE|DICT|INTERRES
    41   19   89 1    
    42   20   21 2    
    43   20   22 1    
    44   22   23 1    
    45   22   24 1    
    46   22   90 1    
    47   23   91 1    
    48   23   92 1    
    49   23   93 1    
    50   24   25 am   BACKBONE|DICT|INTERRES
    51   24   94 1    
    52   25   26 2    
    53   25   27 1    
    54   27   28 1    
    55   27   29 1    
    56   27   95 1    
    57   28   96 1    
    58   28   97 1    
    59   28   98 1    
    60   29   30 am   BACKBONE|DICT|INTERRES
    61   29   99 1    
    62   30   31 2    
    63   30   32 1    
    64   32   33 1    
    65   32   34 1    
    66   32  100 1    
    67   33  101 1    
    68   33  102 1    
    69   33  103 1    
    70   34   35 am   BACKBONE|DICT|INTERRES
    71   34  104 1    
    72   35   36 2    
    73   37   38 2    
    74   37   39 am   BACKBONE|DICT|INTERRES
    75   39   40 1    
    76   39  105 1    
    77   40   41 1    
    78   40   42 1    
    79   40  106 1    
    80   41  107 1    
    81   41  108 1    
    82   41  109 1    
    83   42   43 2    
    84   42   44 am   BACKBONE|DICT|INTERRES
    85   44   45 1    
    86   44  110 1    
    87   45   46 1    
    88   45   47 1    
    89   45  111 1    
    90   46  112 1    
    91   46  113 1    
    92   46  114 1    
    93   47   48 2    
    94   47   49 am   BACKBONE|DICT|INTERRES
    95   49   50 1    
    96   49  115 1    
    97   50   51 1    
    98   50   52 1    
    99   50  116 1    
   100   51  117 1    
   101   51  118 1    
   102   51  119 1    
   103   52   53 2    
   104   52   54 am   BACKBONE|DICT|INTERRES
   105   54   55 1    
   106   54  120 1    
   107   55   56 1    
   108   55   57 1    
   109   55  121 1    
   110   56  122 1    
   111   56  123 1    
   112   56  124 1    
   113   57   58 2    
   114   57   59 am   BACKBONE|DICT|INTERRES
   115   59   60 1    
   116   59  125 1    
   117   60   61 1    
   118   60   62 1    
   119   60  126 1    
   120   61  127 1    
   121   61  128 1    
   122   61  129 1    
   123   62   63 2    
   124   62   64 am   BACKBONE|DICT|INTERRES
   125   64   65 1    
   126   64  130 1    
   127   65   66 1    
   128   65   69 1    
   129   65  131 1    
   130   66   67 am   BACKBONE|DICT|INTERRES
   131   66   68 2    
   132   67  132 1    
   133   67  133 1    
   134   69   70 1    
   135   69  134 1    
   136   69  135 1    
   137   70   71 1    
   138   71  136 1    
   139   71  137 1    
@<TRIPOS>SUBSTRUCTURE
     1 UNK         1 GROUP             0       ****    0 ROOT    
