@<TRIPOS>MOLECULE
3R137
137   139    1
SMALL
USER_CHARGES


@<TRIPOS>ATOM
      1 CA         25.1111   -2.5507    1.9043 C.3       0 UNK        -0.2020 
      2 C          26.3103   -1.7102    1.4929 C.2       0 UNK         0.4855 
      3 O          26.5712   -0.6738    2.1040 O.2       0 UNK        -0.5197 
      4 N          27.0426   -2.1482    0.4610 N.am      1 UNK        -0.4892 
      5 CA         28.2115   -1.4570   -0.1002 C.3       1 UNK         0.0835 
      6 C6         29.1378   -2.4251   -0.8839 C.3       12 UNK        -0.0855 
      7 S7         28.2745   -3.4977   -2.0898 S.3       12 UNK        -0.2931 
      8 C8         29.5435   -4.7714   -2.3934 C.3       12 UNK         0.0378 
      9 C9         30.2532   -4.5691   -3.7260 C.ar      12 UNK        -0.0802 
     10 C10        31.2885   -3.6365   -3.8516 C.ar      12 UNK        -0.0944 
     11 C11        31.9520   -3.4655   -5.0725 C.ar      12 UNK        -0.0787 
     12 C12        31.5852   -4.2615   -6.1649 C.ar      12 UNK        -0.0862 
     13 C13        30.5521   -5.1954   -6.0539 C.ar      12 UNK        -0.0733 
     14 C14        29.8903   -5.3437   -4.8314 C.ar      12 UNK        -0.0832 
     15 C15        30.1708   -6.0631   -7.2471 C.3       12 UNK         0.0240 
     16 S16        29.2534   -5.1427   -8.5259 S.3       12 UNK        -0.2522 
     17 C17        27.7126   -4.7028   -7.6466 C.3       12 UNK        -0.0967 
     18 CA         27.2182   -3.2527   -7.8840 C.3       5 UNK         0.0660 
     19 N          25.9414   -3.0305   -7.1909 N.am      5 UNK        -0.4015 
     20 C          25.2428   -1.8878   -7.1320 C.2       4 UNK         0.4946 
     21 O          25.6029   -0.8372   -7.6695 O.2       4 UNK        -0.5353 
     22 CA         23.9524   -1.8963   -6.2975 C.3       4 UNK         0.0277 
     23 CB         23.8704   -3.0571   -5.2778 C.3       4 UNK        -0.1981 
     24 N          23.8552   -0.6116   -5.6106 N.am      4 UNK        -0.4209 
     25 C          22.7480   -0.0735   -5.0889 C.2       3 UNK         0.4942 
     26 O          21.6347   -0.5980   -5.1604 O.2       3 UNK        -0.5208 
     27 CA         22.9223    1.2812   -4.3679 C.3       3 UNK         0.0250 
     28 CB         21.7479    1.6049   -3.4192 C.3       3 UNK        -0.1990 
     29 N          24.2065    1.4238   -3.6604 N.am      3 UNK        -0.4232 
     30 C          24.6862    0.6385   -2.6828 C.2       2 UNK         0.4993 
     31 O          24.1146   -0.3646   -2.2461 O.2       2 UNK        -0.5286 
     32 CA         26.0290    1.0634   -2.0756 C.3       2 UNK         0.0209 
     33 CB         25.8478    2.2802   -1.1458 C.3       2 UNK        -0.1931 
     34 N          26.5805   -0.0626   -1.3262 N.am      2 UNK        -0.4546 
     35 C          27.8491   -0.1988   -0.9216 C.2       1 UNK         0.5154 
     36 O          28.7264    0.6326   -1.1603 O.2       1 UNK        -0.5181 
     37 C          28.2850   -2.1828   -7.5511 C.2       5 UNK         0.5014 
     38 O          28.9358   -1.6783   -8.4662 O.2       5 UNK        -0.5248 
     39 N          28.3813   -1.7933   -6.2713 N.am      6 UNK        -0.4434 
     40 CA         29.2652   -0.7289   -5.7886 C.3       6 UNK         0.0363 
     41 CB         29.1694   -0.6424   -4.2626 C.3       6 UNK        -0.1936 
     42 C          28.9977    0.6558   -6.3999 C.2       6 UNK         0.5081 
     43 O          29.9415    1.4290   -6.5603 O.2       6 UNK        -0.5248 
     44 N          27.7329    0.9497   -6.7276 N.am      7 UNK        -0.4718 
     45 CA         27.3327    2.1907   -7.3905 C.3       7 UNK         0.0273 
     46 CB         25.8783    2.5343   -7.0287 C.3       7 UNK        -0.1935 
     47 C          27.5117    2.0841   -8.9106 C.2       7 UNK         0.5018 
     48 O          27.9724    3.0431   -9.5284 O.2       7 UNK        -0.5186 
     49 N          27.1728    0.9167   -9.4782 N.am      8 UNK        -0.4240 
     50 CA         27.3016    0.6098  -10.9053 C.3       8 UNK         0.0235 
     51 CB         26.6209   -0.7349  -11.2073 C.3       8 UNK        -0.2000 
     52 C          28.7612    0.6070  -11.3917 C.2       8 UNK         0.4941 
     53 O          29.0551    1.2116  -12.4234 O.2       8 UNK        -0.5273 
     54 N          29.6489   -0.0506  -10.6333 N.am      9 UNK        -0.4262 
     55 CA         31.0910   -0.0963  -10.8932 C.3       9 UNK         0.0264 
     56 CB         31.6600   -1.4011  -10.3124 C.3       9 UNK        -0.1955 
     57 C          31.8458    1.1242  -10.3325 C.2       9 UNK         0.5031 
     58 O          33.0170    1.3031  -10.6687 O.2       9 UNK        -0.5390 
     59 N          31.1790    1.9252   -9.4868 N.am      10 UNK        -0.4204 
     60 CA         31.6680    3.1312   -8.8025 C.3       10 UNK         0.0237 
     61 CB         32.0319    4.2353   -9.8181 C.3       10 UNK        -0.1985 
     62 C          32.7923    2.8737   -7.7755 C.2       10 UNK         0.4970 
     63 O          33.4859    3.8160   -7.3883 O.2       10 UNK        -0.4914 
     64 N          32.9426    1.6192   -7.3357 N.am      11 UNK        -0.4285 
     65 CA         33.8677    1.1889   -6.2779 C.3       11 UNK         0.1007 
     66 C          33.3431    1.4262   -4.8324 C.2       11 UNK         0.5703 
     67 N          32.0741    1.7579   -4.6268 N.am      11 UNK        -0.7361 
     68 O          34.1118    1.3255   -3.8792 O.2       11 UNK        -0.4986 
     69 C69        34.3491   -0.2704   -6.5001 C.3       12 UNK        -0.0947 
     70 S70        32.9892   -1.4650   -6.7259 S.3       12 UNK        -0.2240 
     71 C71        33.0794   -2.4419   -5.1901 C.3       12 UNK         0.0194 
     72 H72        25.2104   -2.8632    2.9435 H         1 UNK         0.0906 
     73 H73        24.1951   -1.9681    1.8093 H         1 UNK         0.0906 
     74 H74        25.0093   -3.4451    1.2898 H         1 UNK         0.0906 
     75 H75        26.7902   -3.0056   -0.0124 H         1 UNK         0.3140 
     76 H76        28.7956   -1.0806    0.7431 H         1 UNK         0.1085 
     77 H77        29.6397   -3.0703   -0.1612 H         1 UNK         0.0836 
     78 H78        29.9380   -1.8823   -1.3907 H         1 UNK         0.0836 
     79 H79        30.2764   -4.7897   -1.5858 H         1 UNK         0.0731 
     80 H80        29.0586   -5.7486   -2.3719 H         1 UNK         0.0731 
     81 H81        31.5736   -3.0402   -2.9958 H         1 UNK         0.1312 
     82 H82        32.0989   -4.1514   -7.1101 H         1 UNK         0.1406 
     83 H83        29.0962   -6.0721   -4.7363 H         1 UNK         0.1631 
     84 H84        29.5761   -6.9209   -6.9292 H         1 UNK         0.0717 
     85 H85        31.0772   -6.4732   -7.6949 H         1 UNK         0.0717 
     86 H86        26.9469   -5.4077   -7.9747 H         1 UNK         0.0934 
     87 H87        27.8318   -4.8800   -6.5783 H         1 UNK         0.0934 
     88 H88        27.0033   -3.1535   -8.9492 H         1 UNK         0.0739 
     89 H89        25.5591   -3.8307   -6.7089 H         1 UNK         0.3093 
     90 H90        23.1210   -1.9801   -7.0002 H         1 UNK         0.0818 
     91 H91        24.7088   -3.0437   -4.5795 H         1 UNK         0.0819 
     92 H92        22.9566   -2.9997   -4.6860 H         1 UNK         0.0819 
     93 H93        23.8544   -4.0290   -5.7720 H         1 UNK         0.0819 
     94 H94        24.7133   -0.0812   -5.5758 H         1 UNK         0.3041 
     95 H95        22.9230    2.0366   -5.1554 H         1 UNK         0.0784 
     96 H96        20.8013    1.6343   -3.9604 H         1 UNK         0.0793 
     97 H97        21.6488    0.8577   -2.6309 H         1 UNK         0.0793 
     98 H98        21.8771    2.5776   -2.9447 H         1 UNK         0.0793 
     99 H99        24.7524    2.2320   -3.9250 H         1 UNK         0.3024 
    100 H100       26.7142    1.3179   -2.8874 H         1 UNK         0.1171 
    101 H101       25.1859    2.0494   -0.3100 H         1 UNK         0.0786 
    102 H102       25.4170    3.1282   -1.6794 H         1 UNK         0.0786 
    103 H103       26.7998    2.6144   -0.7333 H         1 UNK         0.0786 
    104 H104       25.9125   -0.7984   -1.1293 H         1 UNK         0.2977 
    105 H105       27.8176   -2.2636   -5.5791 H         1 UNK         0.3127 
    106 H106       30.2845   -1.0072   -6.0524 H         1 UNK         0.0770 
    107 H107       29.5338   -1.5547   -3.7995 H         1 UNK         0.0814 
    108 H108       28.1439   -0.4815   -3.9315 H         1 UNK         0.0814 
    109 H109       29.7742    0.1755   -3.8695 H         1 UNK         0.0814 
    110 H110       27.0333    0.2199   -6.6699 H         1 UNK         0.2983 
    111 H111       27.9667    3.0076   -7.0369 H         1 UNK         0.0947 
    112 H112       25.5751    3.4715   -7.4974 H         1 UNK         0.0806 
    113 H113       25.7594    2.6600   -5.9535 H         1 UNK         0.0806 
    114 H114       25.1787    1.7669   -7.3609 H         1 UNK         0.0806 
    115 H115       26.7688    0.1961   -8.8868 H         1 UNK         0.3000 
    116 H116       26.7710    1.3893  -11.4562 H         1 UNK         0.0850 
    117 H117       26.6419   -0.9498  -12.2765 H         1 UNK         0.0810 
    118 H118       25.5758   -0.7307  -10.8967 H         1 UNK         0.0810 
    119 H119       27.1180   -1.5614  -10.7001 H         1 UNK         0.0810 
    120 H120       29.3192   -0.5695   -9.8175 H         1 UNK         0.3040 
    121 H121       31.2576   -0.1097  -11.9725 H         1 UNK         0.0766 
    122 H122       32.7342   -1.4771  -10.4862 H         1 UNK         0.0812 
    123 H123       31.1937   -2.2742  -10.7689 H         1 UNK         0.0812 
    124 H124       31.4974   -1.4653   -9.2370 H         1 UNK         0.0812 
    125 H125       30.2231    1.6748   -9.2749 H         1 UNK         0.3205 
    126 H126       30.8211    3.4964   -8.2197 H         1 UNK         0.0754 
    127 H127       32.2364    5.1807   -9.3142 H         1 UNK         0.0769 
    128 H128       31.2144    4.4139  -10.5169 H         1 UNK         0.0769 
    129 H129       32.9193    3.9779  -10.3969 H         1 UNK         0.0769 
    130 H130       32.3003    0.9142   -7.6654 H         1 UNK         0.2981 
    131 H131       34.7585    1.8149   -6.3557 H         1 UNK         0.0541 
    132 H132       31.4157    1.7944   -5.3993 H         1 UNK         0.3459 
    133 H133       31.7572    1.9244   -3.6860 H         1 UNK         0.3459 
    134 H134       35.0052   -0.5971   -5.6912 H         1 UNK         0.0612 
    135 H135       34.9608   -0.3089   -7.4026 H         1 UNK         0.0612 
    136 H136       33.0574   -1.7546   -4.3428 H         1 UNK         0.0624 
    137 H137       34.0367   -2.9629   -5.1521 H         1 UNK         0.0624 
@<TRIPOS>BOND
     1    1    2 1    
     2    1   72 1    
     3    1   73 1    
     4    1   74 1    
     5    2    3 2    
     6    2    4 am   BACKBONE|DICT|INTERRES
     7    4    5 1    
     8    4   75 1    
     9    5    6 1    
    10    5   35 1    
    11    5   76 1    
    12    6    7 1    
    13    6   77 1    
    14    6   78 1    
    15    7    8 1    
    16    8    9 1    
    17    8   79 1    
    18    8   80 1    
    19    9   10 ar   
    20    9   14 ar   
    21   10   11 ar   
    22   10   81 1    
    23   11   12 ar   
    24   11   71 1    
    25   12   13 ar   
    26   12   82 1    
    27   13   14 ar   
    28   13   15 1    
    29   14   83 1    
    30   15   16 1    
    31   15   84 1    
    32   15   85 1    
    33   16   17 1    
    34   17   18 1    
    35   17   86 1    
    36   17   87 1    
    37   18   19 1    
    38   18   37 1    
    39   18   88 1    
    40   19   20 am   BACKBONE|DICT|INTERRES
    41   19   89 1    
    42   20   21 2    
    43   20   22 1    
    44   22   23 1    
    45   22   24 1    
    46   22   90 1    
    47   23   91 1    
    48   23   92 1    
    49   23   93 1    
    50   24   25 am   BACKBONE|DICT|INTERRES
    51   24   94 1    
    52   25   26 2    
    53   25   27 1    
    54   27   28 1    
    55   27   29 1    
    56   27   95 1    
    57   28   96 1    
    58   28   97 1    
    59   28   98 1    
    60   29   30 am   BACKBONE|DICT|INTERRES
    61   29   99 1    
    62   30   31 2    
    63   30   32 1    
    64   32   33 1    
    65   32   34 1    
    66   32  100 1    
    67   33  101 1    
    68   33  102 1    
    69   33  103 1    
    70   34   35 am   BACKBONE|DICT|INTERRES
    71   34  104 1    
    72   35   36 2    
    73   37   38 2    
    74   37   39 am   BACKBONE|DICT|INTERRES
    75   39   40 1    
    76   39  105 1    
    77   40   41 1    
    78   40   42 1    
    79   40  106 1    
    80   41  107 1    
    81   41  108 1    
    82   41  109 1    
    83   42   43 2    
    84   42   44 am   BACKBONE|DICT|INTERRES
    85   44   45 1    
    86   44  110 1    
    87   45   46 1    
    88   45   47 1    
    89   45  111 1    
    90   46  112 1    
    91   46  113 1    
    92   46  114 1    
    93   47   48 2    
    94   47   49 am   BACKBONE|DICT|INTERRES
    95   49   50 1    
    96   49  115 1    
    97   50   51 1    
    98   50   52 1    
    99   50  116 1    
   100   51  117 1    
   101   51  118 1    
   102   51  119 1    
   103   52   53 2    
   104   52   54 am   BACKBONE|DICT|INTERRES
   105   54   55 1    
   106   54  120 1    
   107   55   56 1    
   108   55   57 1    
   109   55  121 1    
   110   56  122 1    
   111   56  123 1    
   112   56  124 1    
   113   57   58 2    
   114   57   59 am   BACKBONE|DICT|INTERRES
   115   59   60 1    
   116   59  125 1    
   117   60   61 1    
   118   60   62 1    
   119   60  126 1    
   120   61  127 1    
   121   61  128 1    
   122   61  129 1    
   123   62   63 2    
   124   62   64 am   BACKBONE|DICT|INTERRES
   125   64   65 1    
   126   64  130 1    
   127   65   66 1    
   128   65   69 1    
   129   65  131 1    
   130   66   67 am   BACKBONE|DICT|INTERRES
   131   66   68 2    
   132   67  132 1    
   133   67  133 1    
   134   69   70 1    
   135   69  134 1    
   136   69  135 1    
   137   70   71 1    
   138   71  136 1    
   139   71  137 1    
@<TRIPOS>SUBSTRUCTURE
     1 UNK         1 GROUP             0       ****    0 ROOT    
