@<TRIPOS>MOLECULE
3R137
137   139    1
SMALL
USER_CHARGES


@<TRIPOS>ATOM
      1 CA         27.0730   -7.3760   -3.2195 C.3       0 UNK        -0.2020 
      2 C          26.7085   -6.6877   -1.9127 C.2       0 UNK         0.4855 
      3 O          25.8323   -7.1653   -1.1920 O.2       0 UNK        -0.5197 
      4 N          27.3687   -5.5639   -1.6052 N.am      1 UNK        -0.4892 
      5 CA         27.1636   -4.7767   -0.3785 C.3       1 UNK         0.0835 
      6 C6         28.4432   -4.0057    0.0414 C.3       12 UNK        -0.0855 
      7 S7         29.8897   -5.1078    0.2308 S.3       12 UNK        -0.2931 
      8 C8         31.2842   -4.0052   -0.1989 C.3       12 UNK         0.0378 
      9 C9         31.2127   -3.3872   -1.5958 C.ar      12 UNK        -0.0802 
     10 C10        31.7250   -2.1027   -1.7987 C.ar      12 UNK        -0.0944 
     11 C11        31.6730   -1.4997   -3.0588 C.ar      12 UNK        -0.0787 
     12 C12        31.0821   -2.1908   -4.1224 C.ar      12 UNK        -0.0862 
     13 C13        30.5618   -3.4793   -3.9408 C.ar      12 UNK        -0.0733 
     14 C14        30.6585   -4.0763   -2.6805 C.ar      12 UNK        -0.0832 
     15 C15        29.9093   -4.2742   -5.0738 C.3       12 UNK         0.0240 
     16 S16        29.2339   -3.2878   -6.4522 S.3       12 UNK        -0.2522 
     17 C17        27.9383   -2.3005   -5.6284 C.3       12 UNK        -0.0967 
     18 CA         27.3814   -1.1920   -6.5559 C.3       5 UNK         0.0660 
     19 N          26.0429   -0.7566   -6.1418 N.am      5 UNK        -0.4015 
     20 C          25.2415    0.0388   -6.8706 C.2       4 UNK         0.4946 
     21 O          25.5450    0.4715   -7.9829 O.2       4 UNK        -0.5353 
     22 CA         23.8980    0.4713   -6.2556 C.3       4 UNK         0.0277 
     23 CB         22.7664   -0.4370   -6.7614 C.3       4 UNK        -0.1981 
     24 N          23.8868    0.4901   -4.7909 N.am      4 UNK        -0.4209 
     25 C          24.6986    1.2263   -4.0173 C.2       3 UNK         0.4942 
     26 O          25.5245    2.0240   -4.4590 O.2       3 UNK        -0.5208 
     27 CA         24.6233    0.9849   -2.4990 C.3       3 UNK         0.0250 
     28 CB         23.6822    2.0057   -1.8399 C.3       3 UNK        -0.1990 
     29 N          24.2113   -0.3748   -2.1231 N.am      3 UNK        -0.4232 
     30 C          24.8465   -1.4998   -2.4817 C.2       2 UNK         0.4993 
     31 O          25.8283   -1.5288   -3.2296 O.2       2 UNK        -0.5286 
     32 CA         24.2431   -2.8183   -1.9836 C.3       2 UNK         0.0209 
     33 CB         23.3445   -3.4339   -3.0692 C.3       2 UNK        -0.1931 
     34 N          25.3135   -3.7587   -1.6620 N.am      2 UNK        -0.4546 
     35 C          25.9575   -3.8152   -0.4883 C.2       1 UNK         0.5154 
     36 O          25.6372   -3.1352    0.4884 O.2       1 UNK        -0.5181 
     37 C          28.3670   -0.0122   -6.7210 C.2       5 UNK         0.5014 
     38 O          29.2540   -0.0819   -7.5751 O.2       5 UNK        -0.5248 
     39 N          28.1616    1.0793   -5.9641 N.am      6 UNK        -0.4434 
     40 CA         28.9283    2.3211   -6.0911 C.3       6 UNK         0.0363 
     41 CB         28.5311    3.3049   -4.9812 C.3       6 UNK        -0.1936 
     42 C          28.7920    2.9787   -7.4750 C.2       6 UNK         0.5081 
     43 O          29.7555    3.5833   -7.9457 O.2       6 UNK        -0.5248 
     44 N          27.6237    2.8179   -8.1090 N.am      7 UNK        -0.4718 
     45 CA         27.3733    3.2332   -9.4848 C.3       7 UNK         0.0273 
     46 CB         25.9028    3.6585   -9.6363 C.3       7 UNK        -0.1935 
     47 C          27.7267    2.1061  -10.4646 C.2       7 UNK         0.5018 
     48 O          28.5083    2.3356  -11.3870 O.2       7 UNK        -0.5186 
     49 N          27.1527    0.9123  -10.2490 N.am      8 UNK        -0.4240 
     50 CA         27.1986   -0.2219  -11.1782 C.3       8 UNK         0.0235 
     51 CB         26.2614   -1.3364  -10.6863 C.3       8 UNK        -0.2000 
     52 C          28.6053   -0.7773  -11.4513 C.2       8 UNK         0.4941 
     53 O          28.8914   -1.1277  -12.5970 O.2       8 UNK        -0.5273 
     54 N          29.4580   -0.8335  -10.4194 N.am      9 UNK        -0.4262 
     55 CA         30.8575   -1.2564  -10.5355 C.3       9 UNK         0.0264 
     56 CB         31.1894   -2.2107   -9.3747 C.3       9 UNK        -0.1955 
     57 C          31.8258   -0.0603  -10.5516 C.2       9 UNK         0.5031 
     58 O          33.0374   -0.2816  -10.5712 O.2       9 UNK        -0.5390 
     59 N          31.2935    1.1735  -10.5065 N.am      10 UNK        -0.4204 
     60 CA         32.0099    2.4491  -10.3578 C.3       10 UNK         0.0237 
     61 CB         32.8297    2.7691  -11.6258 C.3       10 UNK        -0.1985 
     62 C          32.8495    2.5307   -9.0632 C.2       10 UNK         0.4970 
     63 O          33.8700    3.2210   -9.0332 O.2       10 UNK        -0.4914 
     64 N          32.4077    1.8130   -8.0225 N.am      11 UNK        -0.4285 
     65 CA         33.0555    1.7223   -6.7087 C.3       11 UNK         0.1007 
     66 C          32.9167    3.0103   -5.8373 C.2       11 UNK         0.5703 
     67 N          32.0176    3.9368   -6.1489 N.am      11 UNK        -0.7361 
     68 O          33.6650    3.1968   -4.8815 O.2       11 UNK        -0.4986 
     69 C69        32.5905    0.4199   -6.0011 C.3       12 UNK        -0.0947 
     70 S70        33.5503   -0.0406   -4.5188 S.3       12 UNK        -0.2240 
     71 C71        32.2412   -0.0967   -3.2503 C.3       12 UNK         0.0194 
     72 H72        27.9076   -6.8879   -3.7215 H         1 UNK         0.0906 
     73 H73        27.3535   -8.4120   -3.0310 H         1 UNK         0.0906 
     74 H74        26.2193   -7.3728   -3.8967 H         1 UNK         0.0906 
     75 H75        28.0792   -5.2124   -2.2289 H         1 UNK         0.3140 
     76 H76        26.9221   -5.4675    0.4328 H         1 UNK         0.1085 
     77 H77        28.6645   -3.2218   -0.6848 H         1 UNK         0.0836 
     78 H78        28.2890   -3.4971    0.9952 H         1 UNK         0.0836 
     79 H79        31.3363   -3.2196    0.5568 H         1 UNK         0.0731 
     80 H80        32.2127   -4.5716   -0.1187 H         1 UNK         0.0731 
     81 H81        32.1685   -1.5691   -0.9689 H         1 UNK         0.1312 
     82 H82        31.0362   -1.7235   -5.0947 H         1 UNK         0.1406 
     83 H83        30.2916   -5.0833   -2.5404 H         1 UNK         0.1631 
     84 H84        29.1003   -4.8887   -4.6770 H         1 UNK         0.0717 
     85 H85        30.6507   -4.9638   -5.4793 H         1 UNK         0.0717 
     86 H86        27.1414   -2.9913   -5.3479 H         1 UNK         0.0934 
     87 H87        28.3100   -1.8795   -4.6923 H         1 UNK         0.0934 
     88 H88        27.2560   -1.6282   -7.5476 H         1 UNK         0.0739 
     89 H89        25.7533   -1.0343   -5.2089 H         1 UNK         0.3093 
     90 H90        23.7012    1.4895   -6.5976 H         1 UNK         0.0818 
     91 H91        21.7922   -0.0869   -6.4197 H         1 UNK         0.0819 
     92 H92        22.7374   -0.4528   -7.8521 H         1 UNK         0.0819 
     93 H93        22.8923   -1.4668   -6.4241 H         1 UNK         0.0819 
     94 H94        23.2393   -0.1350   -4.3341 H         1 UNK         0.3041 
     95 H95        25.6284    1.1400   -2.1012 H         1 UNK         0.0784 
     96 H96        23.9806    3.0263   -2.0849 H         1 UNK         0.0793 
     97 H97        22.6510    1.8793   -2.1721 H         1 UNK         0.0793 
     98 H98        23.6993    1.9189   -0.7533 H         1 UNK         0.0793 
     99 H99        23.4012   -0.4451   -1.5234 H         1 UNK         0.3024 
    100 H100       23.6421   -2.6314   -1.0903 H         1 UNK         0.1171 
    101 H101       22.5133   -2.7710   -3.3131 H         1 UNK         0.0786 
    102 H102       22.9153   -4.3797   -2.7375 H         1 UNK         0.0786 
    103 H103       23.8940   -3.6219   -3.9929 H         1 UNK         0.0786 
    104 H104       25.6711   -4.3179   -2.4219 H         1 UNK         0.2977 
    105 H105       27.3771    1.0970   -5.3230 H         1 UNK         0.3127 
    106 H106       29.9770    2.0678   -5.9502 H         1 UNK         0.0770 
    107 H107       27.5017    3.6465   -5.0927 H         1 UNK         0.0814 
    108 H108       29.1684    4.1899   -5.0023 H         1 UNK         0.0814 
    109 H109       28.6331    2.8560   -3.9932 H         1 UNK         0.0814 
    110 H110       26.9046    2.2611   -7.6651 H         1 UNK         0.2983 
    111 H111       27.9969    4.0968   -9.7282 H         1 UNK         0.0947 
    112 H112       25.6895    3.9641  -10.6615 H         1 UNK         0.0806 
    113 H113       25.6703    4.5061   -8.9915 H         1 UNK         0.0806 
    114 H114       25.2130    2.8515   -9.3860 H         1 UNK         0.0806 
    115 H115       26.5427    0.8042   -9.4390 H         1 UNK         0.3000 
    116 H116       26.8093    0.1396  -12.1324 H         1 UNK         0.0850 
    117 H117       26.2232   -2.1580  -11.4028 H         1 UNK         0.0810 
    118 H118       25.2422   -0.9712  -10.5576 H         1 UNK         0.0810 
    119 H119       26.5904   -1.7512   -9.7346 H         1 UNK         0.0810 
    120 H120       29.1582   -0.5328   -9.4949 H         1 UNK         0.3040 
    121 H121       31.0137   -1.8037  -11.4673 H         1 UNK         0.0766 
    122 H122       32.1954   -2.6190   -9.4774 H         1 UNK         0.0812 
    123 H123       30.5008   -3.0551   -9.3463 H         1 UNK         0.0812 
    124 H124       31.1426   -1.7078   -8.4086 H         1 UNK         0.0812 
    125 H125       30.2850    1.2514  -10.5592 H         1 UNK         0.3205 
    126 H126       31.2398    3.2162  -10.2635 H         1 UNK         0.0754 
    127 H127       33.2464    3.7760  -11.5795 H         1 UNK         0.0769 
    128 H128       32.2095    2.7183  -12.5208 H         1 UNK         0.0769 
    129 H129       33.6632    2.0780  -11.7547 H         1 UNK         0.0769 
    130 H130       31.5455    1.2989   -8.1289 H         1 UNK         0.2981 
    131 H131       34.1250    1.6136   -6.8986 H         1 UNK         0.0541 
    132 H132       31.3840    3.8135   -6.9322 H         1 UNK         0.3459 
    133 H133       31.9658    4.7724   -5.5893 H         1 UNK         0.3459 
    134 H134       32.6816   -0.4190   -6.6933 H         1 UNK         0.0612 
    135 H135       31.5303    0.4771   -5.7600 H         1 UNK         0.0612 
    136 H136       32.6739    0.2659   -2.3168 H         1 UNK         0.0624 
    137 H137       31.4362    0.5979   -3.4935 H         1 UNK         0.0624 
@<TRIPOS>BOND
     1    1    2 1    
     2    1   72 1    
     3    1   73 1    
     4    1   74 1    
     5    2    3 2    
     6    2    4 am   BACKBONE|DICT|INTERRES
     7    4    5 1    
     8    4   75 1    
     9    5    6 1    
    10    5   35 1    
    11    5   76 1    
    12    6    7 1    
    13    6   77 1    
    14    6   78 1    
    15    7    8 1    
    16    8    9 1    
    17    8   79 1    
    18    8   80 1    
    19    9   10 ar   
    20    9   14 ar   
    21   10   11 ar   
    22   10   81 1    
    23   11   12 ar   
    24   11   71 1    
    25   12   13 ar   
    26   12   82 1    
    27   13   14 ar   
    28   13   15 1    
    29   14   83 1    
    30   15   16 1    
    31   15   84 1    
    32   15   85 1    
    33   16   17 1    
    34   17   18 1    
    35   17   86 1    
    36   17   87 1    
    37   18   19 1    
    38   18   37 1    
    39   18   88 1    
    40   19   20 am   BACKBONE|DICT|INTERRES
    41   19   89 1    
    42   20   21 2    
    43   20   22 1    
    44   22   23 1    
    45   22   24 1    
    46   22   90 1    
    47   23   91 1    
    48   23   92 1    
    49   23   93 1    
    50   24   25 am   BACKBONE|DICT|INTERRES
    51   24   94 1    
    52   25   26 2    
    53   25   27 1    
    54   27   28 1    
    55   27   29 1    
    56   27   95 1    
    57   28   96 1    
    58   28   97 1    
    59   28   98 1    
    60   29   30 am   BACKBONE|DICT|INTERRES
    61   29   99 1    
    62   30   31 2    
    63   30   32 1    
    64   32   33 1    
    65   32   34 1    
    66   32  100 1    
    67   33  101 1    
    68   33  102 1    
    69   33  103 1    
    70   34   35 am   BACKBONE|DICT|INTERRES
    71   34  104 1    
    72   35   36 2    
    73   37   38 2    
    74   37   39 am   BACKBONE|DICT|INTERRES
    75   39   40 1    
    76   39  105 1    
    77   40   41 1    
    78   40   42 1    
    79   40  106 1    
    80   41  107 1    
    81   41  108 1    
    82   41  109 1    
    83   42   43 2    
    84   42   44 am   BACKBONE|DICT|INTERRES
    85   44   45 1    
    86   44  110 1    
    87   45   46 1    
    88   45   47 1    
    89   45  111 1    
    90   46  112 1    
    91   46  113 1    
    92   46  114 1    
    93   47   48 2    
    94   47   49 am   BACKBONE|DICT|INTERRES
    95   49   50 1    
    96   49  115 1    
    97   50   51 1    
    98   50   52 1    
    99   50  116 1    
   100   51  117 1    
   101   51  118 1    
   102   51  119 1    
   103   52   53 2    
   104   52   54 am   BACKBONE|DICT|INTERRES
   105   54   55 1    
   106   54  120 1    
   107   55   56 1    
   108   55   57 1    
   109   55  121 1    
   110   56  122 1    
   111   56  123 1    
   112   56  124 1    
   113   57   58 2    
   114   57   59 am   BACKBONE|DICT|INTERRES
   115   59   60 1    
   116   59  125 1    
   117   60   61 1    
   118   60   62 1    
   119   60  126 1    
   120   61  127 1    
   121   61  128 1    
   122   61  129 1    
   123   62   63 2    
   124   62   64 am   BACKBONE|DICT|INTERRES
   125   64   65 1    
   126   64  130 1    
   127   65   66 1    
   128   65   69 1    
   129   65  131 1    
   130   66   67 am   BACKBONE|DICT|INTERRES
   131   66   68 2    
   132   67  132 1    
   133   67  133 1    
   134   69   70 1    
   135   69  134 1    
   136   69  135 1    
   137   70   71 1    
   138   71  136 1    
   139   71  137 1    
@<TRIPOS>SUBSTRUCTURE
     1 UNK         1 GROUP             0       ****    0 ROOT    
