@<TRIPOS>MOLECULE
3R137
137   139    1
SMALL
USER_CHARGES


@<TRIPOS>ATOM
      1 CA         31.1316    0.5857   -0.0950 C.3       0 UNK        -0.2020 
      2 C          30.1706   -0.3219   -0.8483 C.2       0 UNK         0.4855 
      3 O          29.6380    0.0804   -1.8810 O.2       0 UNK        -0.5197 
      4 N          29.9549   -1.5423   -0.3412 N.am      1 UNK        -0.4892 
      5 CA         29.0793   -2.5646   -0.9284 C.3       1 UNK         0.0835 
      6 C6         29.2462   -3.9364   -0.2254 C.3       12 UNK        -0.0855 
      7 S7         30.9709   -4.5304   -0.2213 S.3       12 UNK        -0.2931 
      8 C8         30.9594   -5.7132   -1.6091 C.3       12 UNK         0.0378 
      9 C9         30.7471   -5.0485   -2.9658 C.ar      12 UNK        -0.0802 
     10 C10        31.5538   -3.9789   -3.3664 C.ar      12 UNK        -0.0944 
     11 C11        31.3962   -3.4024   -4.6288 C.ar      12 UNK        -0.0787 
     12 C12        30.4315   -3.9121   -5.5024 C.ar      12 UNK        -0.0862 
     13 C13        29.6101   -4.9805   -5.1177 C.ar      12 UNK        -0.0733 
     14 C14        29.7747   -5.5378   -3.8444 C.ar      12 UNK        -0.0832 
     15 C15        28.5885   -5.6067   -6.0694 C.3       12 UNK         0.0240 
     16 S16        27.9154   -4.4859   -7.3428 S.3       12 UNK        -0.2522 
     17 C17        26.7712   -3.4722   -6.3531 C.3       12 UNK        -0.0967 
     18 CA         26.1068   -2.3623   -7.2061 C.3       5 UNK         0.0660 
     19 N          24.8532   -1.8893   -6.6221 N.am      5 UNK        -0.4015 
     20 C          23.8442   -1.3535   -7.3245 C.2       4 UNK         0.4946 
     21 O          23.8146   -1.3036   -8.5545 O.2       4 UNK        -0.5353 
     22 CA         22.6656   -0.7625   -6.5286 C.3       4 UNK         0.0277 
     23 CB         21.5322   -1.7935   -6.4030 C.3       4 UNK        -0.1981 
     24 N          23.0386   -0.2888   -5.1932 N.am      4 UNK        -0.4209 
     25 C          23.8501    0.7509   -4.9520 C.2       3 UNK         0.4942 
     26 O          24.3476    1.4525   -5.8318 O.2       3 UNK        -0.5208 
     27 CA         24.2146    1.0099   -3.4798 C.3       3 UNK         0.0250 
     28 CB         23.1460    1.8848   -2.8054 C.3       3 UNK        -0.1990 
     29 N          24.4211   -0.2137   -2.6928 N.am      3 UNK        -0.4232 
     30 C          25.3163   -1.1679   -2.9840 C.2       2 UNK         0.4993 
     31 O          26.0224   -1.1627   -3.9952 O.2       2 UNK        -0.5286 
     32 CA         25.4026   -2.3644   -2.0309 C.3       2 UNK         0.0209 
     33 CB         24.6625   -3.5737   -2.6259 C.3       2 UNK        -0.1931 
     34 N          26.8073   -2.7148   -1.8272 N.am      2 UNK        -0.4546 
     35 C          27.5948   -2.1431   -0.9083 C.2       1 UNK         0.5154 
     36 O          27.1809   -1.3590   -0.0487 O.2       1 UNK        -0.5181 
     37 C          27.0462   -1.1671   -7.4361 C.2       5 UNK         0.5014 
     38 O          27.5217   -0.9774   -8.5560 O.2       5 UNK        -0.5248 
     39 N          27.2579   -0.3564   -6.3875 N.am      6 UNK        -0.4434 
     40 CA         28.1309    0.8218   -6.3771 C.3       6 UNK         0.0363 
     41 CB         28.1223    1.4557   -4.9798 C.3       6 UNK        -0.1936 
     42 C          27.7919    1.8708   -7.4473 C.2       6 UNK         0.5081 
     43 O          28.7068    2.5035   -7.9706 O.2       6 UNK        -0.5248 
     44 N          26.5066    1.9921   -7.8078 N.am      7 UNK        -0.4718 
     45 CA         26.0147    2.8117   -8.9204 C.3       7 UNK         0.0273 
     46 CB         24.4827    2.7015   -8.9839 C.3       7 UNK        -0.1935 
     47 C          26.6317    2.4679  -10.2926 C.2       7 UNK         0.5018 
     48 O          26.6991    3.3508  -11.1491 O.2       7 UNK        -0.5186 
     49 N          27.0733    1.2154  -10.4749 N.am      8 UNK        -0.4240 
     50 CA         27.7816    0.7428  -11.6646 C.3       8 UNK         0.0235 
     51 CB         27.1070   -0.5409  -12.1770 C.3       8 UNK        -0.2000 
     52 C          29.2670    0.4847  -11.3667 C.2       8 UNK         0.4941 
     53 O          30.1163    0.8485  -12.1806 O.2       8 UNK        -0.5273 
     54 N          29.5572   -0.1537  -10.2247 N.am      9 UNK        -0.4262 
     55 CA         30.8913   -0.6175   -9.8384 C.3       9 UNK         0.0264 
     56 CB         30.7440   -1.7234   -8.7796 C.3       9 UNK        -0.1955 
     57 C          31.8306    0.4839   -9.3202 C.2       9 UNK         0.5031 
     58 O          33.0395    0.2479   -9.2775 O.2       9 UNK        -0.5390 
     59 N          31.2846    1.6316   -8.8894 N.am      10 UNK        -0.4204 
     60 CA         31.9453    2.7856   -8.2569 C.3       10 UNK         0.0237 
     61 CB         33.0231    3.4080   -9.1669 C.3       10 UNK        -0.1985 
     62 C          32.4931    2.5001   -6.8458 C.2       10 UNK         0.4970 
     63 O          32.2732    3.3096   -5.9445 O.2       10 UNK        -0.4914 
     64 N          33.1818    1.3643   -6.6829 N.am      11 UNK        -0.4285 
     65 CA         33.7533    0.8383   -5.4315 C.3       11 UNK         0.1007 
     66 C          34.9167    1.6876   -4.8333 C.2       11 UNK         0.5703 
     67 N          35.5386    2.5833   -5.5913 N.am      11 UNK        -0.7361 
     68 O          35.2906    1.5107   -3.6760 O.2       11 UNK        -0.4986 
     69 C69        32.6730    0.4655   -4.3728 C.3       12 UNK        -0.0947 
     70 S70        31.3875   -0.6668   -5.0014 S.3       12 UNK        -0.2240 
     71 C71        32.2870   -2.2459   -5.0547 C.3       12 UNK         0.0194 
     72 H72        31.9566    0.8770   -0.7449 H         1 UNK         0.0906 
     73 H73        30.6170    1.4899    0.2288 H         1 UNK         0.0906 
     74 H74        31.5494    0.0981    0.7856 H         1 UNK         0.0906 
     75 H75        30.4181   -1.8154    0.5135 H         1 UNK         0.3140 
     76 H76        29.3726   -2.6690   -1.9755 H         1 UNK         0.1085 
     77 H77        28.9145   -3.8732    0.8131 H         1 UNK         0.0836 
     78 H78        28.6136   -4.6925   -0.6949 H         1 UNK         0.0836 
     79 H79        31.9163   -6.2364   -1.6272 H         1 UNK         0.0731 
     80 H80        30.1998   -6.4736   -1.4203 H         1 UNK         0.0731 
     81 H81        32.3097   -3.5985   -2.6928 H         1 UNK         0.1312 
     82 H82        30.3336   -3.4757   -6.4857 H         1 UNK         0.1406 
     83 H83        29.1613   -6.3782   -3.5476 H         1 UNK         0.1631 
     84 H84        27.7554   -6.0292   -5.5052 H         1 UNK         0.0717 
     85 H85        29.0707   -6.4434   -6.5763 H         1 UNK         0.0717 
     86 H86        26.0071   -4.1441   -5.9591 H         1 UNK         0.0934 
     87 H87        27.2938   -3.0652   -5.4848 H         1 UNK         0.0934 
     88 H88        25.8740   -2.7885   -8.1850 H         1 UNK         0.0739 
     89 H89        24.8351   -1.8187   -5.6129 H         1 UNK         0.3093 
     90 H90        22.2897    0.0938   -7.0932 H         1 UNK         0.0818 
     91 H91        20.6559   -1.3638   -5.9173 H         1 UNK         0.0819 
     92 H92        21.2147   -2.1451   -7.3858 H         1 UNK         0.0819 
     93 H93        21.8413   -2.6680   -5.8289 H         1 UNK         0.0819 
     94 H94        22.6725   -0.8032   -4.4053 H         1 UNK         0.3041 
     95 H95        25.1561    1.5617   -3.4707 H         1 UNK         0.0784 
     96 H96        22.9890    2.8086   -3.3645 H         1 UNK         0.0793 
     97 H97        22.1839    1.3748   -2.7420 H         1 UNK         0.0793 
     98 H98        23.4439    2.1680   -1.7956 H         1 UNK         0.0793 
     99 H99        23.8693   -0.3035   -1.8513 H         1 UNK         0.3024 
    100 H100       24.9425   -2.1058   -1.0741 H         1 UNK         0.1171 
    101 H101       23.6066   -3.3489   -2.7825 H         1 UNK         0.0786 
    102 H102       24.7129   -4.4345   -1.9587 H         1 UNK         0.0786 
    103 H103       25.0788   -3.8734   -3.5884 H         1 UNK         0.0786 
    104 H104       27.2221   -3.3175   -2.5228 H         1 UNK         0.2977 
    105 H105       26.8185   -0.5949   -5.4984 H         1 UNK         0.3127 
    106 H106       29.1423    0.4694   -6.5840 H         1 UNK         0.0770 
    107 H107       27.1407    1.8552   -4.7265 H         1 UNK         0.0814 
    108 H108       28.8382    2.2767   -4.9209 H         1 UNK         0.0814 
    109 H109       28.3995    0.7303   -4.2145 H         1 UNK         0.0814 
    110 H110       25.8066    1.4957   -7.2647 H         1 UNK         0.2983 
    111 H111       26.2778    3.8486   -8.7015 H         1 UNK         0.0947 
    112 H112       24.0788    3.2993   -9.8022 H         1 UNK         0.0806 
    113 H113       24.0210    3.0610   -8.0642 H         1 UNK         0.0806 
    114 H114       24.1602    1.6709   -9.1398 H         1 UNK         0.0806 
    115 H115       26.9973    0.5590   -9.7039 H         1 UNK         0.3000 
    116 H116       27.7314    1.4886  -12.4609 H         1 UNK         0.0850 
    117 H117       27.6188   -0.9260  -13.0600 H         1 UNK         0.0810 
    118 H118       26.0702   -0.3556  -12.4583 H         1 UNK         0.0810 
    119 H119       27.1118   -1.3309  -11.4245 H         1 UNK         0.0810 
    120 H120       28.7907   -0.4451   -9.6172 H         1 UNK         0.3040 
    121 H121       31.3654   -1.0556  -10.7193 H         1 UNK         0.0766 
    122 H122       31.7154   -2.1372   -8.5057 H         1 UNK         0.0812 
    123 H123       30.1327   -2.5483   -9.1465 H         1 UNK         0.0812 
    124 H124       30.2815   -1.3471   -7.8667 H         1 UNK         0.0812 
    125 H125       30.2712    1.7069   -8.9011 H         1 UNK         0.3205 
    126 H126       31.1616    3.5347   -8.1352 H         1 UNK         0.0754 
    127 H127       33.4129    4.3286   -8.7306 H         1 UNK         0.0769 
    128 H128       32.6148    3.6610  -10.1454 H         1 UNK         0.0769 
    129 H129       33.8710    2.7403   -9.3204 H         1 UNK         0.0769 
    130 H130       33.3193    0.7916   -7.5119 H         1 UNK         0.2981 
    131 H131       34.2383   -0.0931   -5.7238 H         1 UNK         0.0541 
    132 H132       36.2975    3.1191   -5.2007 H         1 UNK         0.3459 
    133 H133       35.2524    2.7309   -6.5454 H         1 UNK         0.3459 
    134 H134       32.1747    1.3645   -4.0072 H         1 UNK         0.0612 
    135 H135       33.1281    0.0017   -3.4961 H         1 UNK         0.0612 
    136 H136       33.1688   -2.1972   -4.4144 H         1 UNK         0.0624 
    137 H137       32.6541   -2.4118   -6.0683 H         1 UNK         0.0624 
@<TRIPOS>BOND
     1    1    2 1    
     2    1   72 1    
     3    1   73 1    
     4    1   74 1    
     5    2    3 2    
     6    2    4 am   BACKBONE|DICT|INTERRES
     7    4    5 1    
     8    4   75 1    
     9    5    6 1    
    10    5   35 1    
    11    5   76 1    
    12    6    7 1    
    13    6   77 1    
    14    6   78 1    
    15    7    8 1    
    16    8    9 1    
    17    8   79 1    
    18    8   80 1    
    19    9   10 ar   
    20    9   14 ar   
    21   10   11 ar   
    22   10   81 1    
    23   11   12 ar   
    24   11   71 1    
    25   12   13 ar   
    26   12   82 1    
    27   13   14 ar   
    28   13   15 1    
    29   14   83 1    
    30   15   16 1    
    31   15   84 1    
    32   15   85 1    
    33   16   17 1    
    34   17   18 1    
    35   17   86 1    
    36   17   87 1    
    37   18   19 1    
    38   18   37 1    
    39   18   88 1    
    40   19   20 am   BACKBONE|DICT|INTERRES
    41   19   89 1    
    42   20   21 2    
    43   20   22 1    
    44   22   23 1    
    45   22   24 1    
    46   22   90 1    
    47   23   91 1    
    48   23   92 1    
    49   23   93 1    
    50   24   25 am   BACKBONE|DICT|INTERRES
    51   24   94 1    
    52   25   26 2    
    53   25   27 1    
    54   27   28 1    
    55   27   29 1    
    56   27   95 1    
    57   28   96 1    
    58   28   97 1    
    59   28   98 1    
    60   29   30 am   BACKBONE|DICT|INTERRES
    61   29   99 1    
    62   30   31 2    
    63   30   32 1    
    64   32   33 1    
    65   32   34 1    
    66   32  100 1    
    67   33  101 1    
    68   33  102 1    
    69   33  103 1    
    70   34   35 am   BACKBONE|DICT|INTERRES
    71   34  104 1    
    72   35   36 2    
    73   37   38 2    
    74   37   39 am   BACKBONE|DICT|INTERRES
    75   39   40 1    
    76   39  105 1    
    77   40   41 1    
    78   40   42 1    
    79   40  106 1    
    80   41  107 1    
    81   41  108 1    
    82   41  109 1    
    83   42   43 2    
    84   42   44 am   BACKBONE|DICT|INTERRES
    85   44   45 1    
    86   44  110 1    
    87   45   46 1    
    88   45   47 1    
    89   45  111 1    
    90   46  112 1    
    91   46  113 1    
    92   46  114 1    
    93   47   48 2    
    94   47   49 am   BACKBONE|DICT|INTERRES
    95   49   50 1    
    96   49  115 1    
    97   50   51 1    
    98   50   52 1    
    99   50  116 1    
   100   51  117 1    
   101   51  118 1    
   102   51  119 1    
   103   52   53 2    
   104   52   54 am   BACKBONE|DICT|INTERRES
   105   54   55 1    
   106   54  120 1    
   107   55   56 1    
   108   55   57 1    
   109   55  121 1    
   110   56  122 1    
   111   56  123 1    
   112   56  124 1    
   113   57   58 2    
   114   57   59 am   BACKBONE|DICT|INTERRES
   115   59   60 1    
   116   59  125 1    
   117   60   61 1    
   118   60   62 1    
   119   60  126 1    
   120   61  127 1    
   121   61  128 1    
   122   61  129 1    
   123   62   63 2    
   124   62   64 am   BACKBONE|DICT|INTERRES
   125   64   65 1    
   126   64  130 1    
   127   65   66 1    
   128   65   69 1    
   129   65  131 1    
   130   66   67 am   BACKBONE|DICT|INTERRES
   131   66   68 2    
   132   67  132 1    
   133   67  133 1    
   134   69   70 1    
   135   69  134 1    
   136   69  135 1    
   137   70   71 1    
   138   71  136 1    
   139   71  137 1    
@<TRIPOS>SUBSTRUCTURE
     1 UNK         1 GROUP             0       ****    0 ROOT    
