@<TRIPOS>MOLECULE
3R137
137   139    1
SMALL
USER_CHARGES


@<TRIPOS>ATOM
      1 CA         24.4008   -6.5354   -0.1774 C.3       0 UNK        -0.2020 
      2 C          25.3655   -5.4065    0.1533 C.2       0 UNK         0.4855 
      3 O          24.9502   -4.3904    0.7114 O.2       0 UNK        -0.5197 
      4 N          26.6513   -5.5774   -0.1797 N.am      1 UNK        -0.4892 
      5 CA         27.6934   -4.5587   -0.0228 C.3       1 UNK         0.0835 
      6 C6         29.1044   -5.1856   -0.1371 C.3       12 UNK        -0.0855 
      7 S7         30.4157   -4.1010    0.5247 S.3       12 UNK        -0.2931 
      8 C8         31.5851   -4.0196   -0.8708 C.3       12 UNK         0.0378 
      9 C9         31.1329   -3.0549   -1.9596 C.ar      12 UNK        -0.0802 
     10 C10        31.3694   -1.6833   -1.8192 C.ar      12 UNK        -0.0944 
     11 C11        31.0068   -0.7849   -2.8285 C.ar      12 UNK        -0.0787 
     12 C12        30.3703   -1.2754   -3.9735 C.ar      12 UNK        -0.0862 
     13 C13        30.1647   -2.6459   -4.1461 C.ar      12 UNK        -0.0733 
     14 C14        30.5354   -3.5321   -3.1308 C.ar      12 UNK        -0.0832 
     15 C15        29.6219   -3.1610   -5.4686 C.3       12 UNK         0.0240 
     16 S16        27.8142   -3.0065   -5.5885 S.3       12 UNK        -0.2522 
     17 C17        27.6302   -2.8768   -7.4056 C.3       12 UNK        -0.0967 
     18 CA         27.1121   -1.4983   -7.8839 C.3       5 UNK         0.0660 
     19 N          25.7305   -1.2777   -7.4541 N.am      5 UNK        -0.4015 
     20 C          24.9532   -0.2370   -7.7827 C.2       4 UNK         0.4946 
     21 O          25.2857    0.6331   -8.5885 O.2       4 UNK        -0.5353 
     22 CA         23.6123   -0.1030   -7.0339 C.3       4 UNK         0.0277 
     23 CB         22.4609   -0.6197   -7.9103 C.3       4 UNK        -0.1981 
     24 N          23.5708   -0.7740   -5.7235 N.am      4 UNK        -0.4209 
     25 C          24.4248   -0.5553   -4.7109 C.2       3 UNK         0.4942 
     26 O          25.3508    0.2553   -4.7862 O.2       3 UNK        -0.5208 
     27 CA         24.2464   -1.4070   -3.4370 C.3       3 UNK         0.0250 
     28 CB         23.7003   -2.8201   -3.7254 C.3       3 UNK        -0.1990 
     29 N          25.5235   -1.5450   -2.7389 N.am      3 UNK        -0.4232 
     30 C          26.0424   -0.6770   -1.8650 C.2       2 UNK         0.4993 
     31 O          25.4304    0.2944   -1.4151 O.2       2 UNK        -0.5286 
     32 CA         27.4895   -0.9607   -1.4153 C.3       2 UNK         0.0209 
     33 CB         28.1046    0.2146   -0.6329 C.3       2 UNK        -0.1931 
     34 N          27.6041   -2.1743   -0.6033 N.am      2 UNK        -0.4546 
     35 C          27.4873   -3.4308   -1.0528 C.2       1 UNK         0.5154 
     36 O          27.2421   -3.7239   -2.2256 O.2       1 UNK        -0.5181 
     37 C          28.0715   -0.3445   -7.5029 C.2       5 UNK         0.5014 
     38 O          29.0617   -0.1345   -8.2047 O.2       5 UNK        -0.5248 
     39 N          27.7576    0.4137   -6.4402 N.am      6 UNK        -0.4434 
     40 CA         28.4988    1.6115   -6.0424 C.3       6 UNK         0.0363 
     41 CB         28.0779    2.0335   -4.6260 C.3       6 UNK        -0.1936 
     42 C          28.3507    2.7792   -7.0329 C.2       6 UNK         0.5081 
     43 O          29.2221    3.6470   -7.0635 O.2       6 UNK        -0.5248 
     44 N          27.2788    2.7734   -7.8362 N.am      7 UNK        -0.4718 
     45 CA         27.0752    3.6991   -8.9475 C.3       7 UNK         0.0273 
     46 CB         25.6055    4.1517   -8.9786 C.3       7 UNK        -0.1935 
     47 C          27.4727    3.0368  -10.2739 C.2       7 UNK         0.5018 
     48 O          28.2245    3.6340  -11.0438 O.2       7 UNK        -0.5186 
     49 N          26.9633    1.8203  -10.5189 N.am      8 UNK        -0.4240 
     50 CA         27.0972    1.1041  -11.7902 C.3       8 UNK         0.0235 
     51 CB         26.0954   -0.0613  -11.8296 C.3       8 UNK        -0.2000 
     52 C          28.5193    0.6064  -12.0973 C.2       8 UNK         0.4941 
     53 O          28.9192    0.6409  -13.2618 O.2       8 UNK        -0.5273 
     54 N          29.2494    0.1501  -11.0707 N.am      9 UNK        -0.4262 
     55 CA         30.6119   -0.3819  -11.1867 C.3       9 UNK         0.0264 
     56 CB         30.6242   -1.8372  -10.6822 C.3       9 UNK        -0.1955 
     57 C          31.6397    0.4723  -10.4248 C.2       9 UNK         0.5031 
     58 O          32.8109    0.0921  -10.3828 O.2       9 UNK        -0.5390 
     59 N          31.1995    1.5862   -9.8167 N.am      10 UNK        -0.4204 
     60 CA         31.9903    2.5430   -9.0279 C.3       10 UNK         0.0237 
     61 CB         32.9133    3.3610   -9.9565 C.3       10 UNK        -0.1985 
     62 C          32.7533    1.9022   -7.8469 C.2       10 UNK         0.4970 
     63 O          33.8464    2.3605   -7.5095 O.2       10 UNK        -0.4914 
     64 N          32.1775    0.8394   -7.2659 N.am      11 UNK        -0.4285 
     65 CA         32.7907   -0.0265   -6.2406 C.3       11 UNK         0.1007 
     66 C          33.9906   -0.8838   -6.7518 C.2       11 UNK         0.5703 
     67 N          34.2205   -1.0118   -8.0541 N.am      11 UNK        -0.7361 
     68 O          34.7131   -1.4787   -5.9555 O.2       11 UNK        -0.4986 
     69 C69        33.1105    0.7030   -4.8966 C.3       12 UNK        -0.0947 
     70 S70        31.6893    1.6113   -4.1967 S.3       12 UNK        -0.2240 
     71 C71        31.3222    0.7012   -2.6535 C.3       12 UNK         0.0194 
     72 H72        24.9044   -7.3776   -0.6517 H         1 UNK         0.0906 
     73 H73        23.9196   -6.8964    0.7312 H         1 UNK         0.0906 
     74 H74        23.6257   -6.1786   -0.8552 H         1 UNK         0.0906 
     75 H75        26.9284   -6.4161   -0.6700 H         1 UNK         0.3140 
     76 H76        27.5857   -4.1400    0.9808 H         1 UNK         0.1085 
     77 H77        29.3227   -5.4729   -1.1672 H         1 UNK         0.0836 
     78 H78        29.1444   -6.1102    0.4412 H         1 UNK         0.0836 
     79 H79        32.5555   -3.6977   -0.4897 H         1 UNK         0.0731 
     80 H80        31.7431   -5.0195   -1.2782 H         1 UNK         0.0731 
     81 H81        31.8515   -1.3174   -0.9228 H         1 UNK         0.1312 
     82 H82        30.0679   -0.5971   -4.7574 H         1 UNK         0.1406 
     83 H83        30.3772   -4.5936   -3.2632 H         1 UNK         0.1631 
     84 H84        29.9001   -4.2049   -5.6209 H         1 UNK         0.0717 
     85 H85        30.0977   -2.5993   -6.2740 H         1 UNK         0.0717 
     86 H86        28.5737   -3.1116   -7.9018 H         1 UNK         0.0934 
     87 H87        26.9432   -3.6604   -7.7295 H         1 UNK         0.0934 
     88 H88        27.0913   -1.5246   -8.9741 H         1 UNK         0.0739 
     89 H89        25.3792   -1.9289   -6.7682 H         1 UNK         0.3093 
     90 H90        23.4561    0.9630   -6.8562 H         1 UNK         0.0818 
     91 H91        21.4922   -0.4301   -7.4474 H         1 UNK         0.0819 
     92 H92        22.4554   -0.1211   -8.8810 H         1 UNK         0.0819 
     93 H93        22.5425   -1.6915   -8.0955 H         1 UNK         0.0819 
     94 H94        22.8369   -1.4552   -5.5907 H         1 UNK         0.3041 
     95 H95        23.5373   -0.8865   -2.7902 H         1 UNK         0.0784 
     96 H96        22.6826   -2.7889   -4.1157 H         1 UNK         0.0793 
     97 H97        24.3209   -3.3552   -4.4460 H         1 UNK         0.0793 
     98 H98        23.6666   -3.4191   -2.8146 H         1 UNK         0.0793 
     99 H99        26.1004   -2.3436   -2.9907 H         1 UNK         0.3024 
    100 H100       28.0808   -1.1035   -2.3223 H         1 UNK         0.1171 
    101 H101       29.1477    0.0209   -0.3824 H         1 UNK         0.0786 
    102 H102       28.0771    1.1317   -1.2227 H         1 UNK         0.0786 
    103 H103       27.5675    0.4076    0.2965 H         1 UNK         0.0786 
    104 H104       27.7952   -2.0320    0.3778 H         1 UNK         0.2977 
    105 H105       26.9185    0.2047   -5.9029 H         1 UNK         0.3127 
    106 H106       29.5560    1.3505   -6.0250 H         1 UNK         0.0770 
    107 H107       27.0326    2.3421   -4.5904 H         1 UNK         0.0814 
    108 H108       28.6785    2.8743   -4.2768 H         1 UNK         0.0814 
    109 H109       28.2131    1.2205   -3.9126 H         1 UNK         0.0814 
    110 H110       26.6180    2.0085   -7.7610 H         1 UNK         0.2983 
    111 H111       27.6954    4.5894   -8.8197 H         1 UNK         0.0947 
    112 H112       25.4272    4.8396   -9.8062 H         1 UNK         0.0806 
    113 H113       25.3355    4.6736   -8.0605 H         1 UNK         0.0806 
    114 H114       24.9189    3.3127   -9.0981 H         1 UNK         0.0806 
    115 H115       26.3395    1.4048   -9.8279 H         1 UNK         0.3000 
    116 H116       26.8242    1.8019  -12.5851 H         1 UNK         0.0850 
    117 H117       26.1385   -0.5811  -12.7878 H         1 UNK         0.0810 
    118 H118       25.0720    0.2912  -11.6987 H         1 UNK         0.0810 
    119 H119       26.2959   -0.7966  -11.0512 H         1 UNK         0.0810 
    120 H120       28.8600    0.1478  -10.1326 H         1 UNK         0.3040 
    121 H121       30.9337   -0.3876  -12.2299 H         1 UNK         0.0766 
    122 H122       30.3901   -1.9030   -9.6197 H         1 UNK         0.0812 
    123 H123       31.6049   -2.2928  -10.8255 H         1 UNK         0.0812 
    124 H124       29.9031   -2.4500  -11.2232 H         1 UNK         0.0812 
    125 H125       30.2172    1.8023   -9.9068 H         1 UNK         0.3205 
    126 H126       31.2787    3.2387   -8.5845 H         1 UNK         0.0754 
    127 H127       33.4082    4.1652   -9.4107 H         1 UNK         0.0769 
    128 H128       32.3503    3.8227  -10.7677 H         1 UNK         0.0769 
    129 H129       33.6923    2.7396  -10.3997 H         1 UNK         0.0769 
    130 H130       31.2861    0.5260   -7.6271 H         1 UNK         0.2981 
    131 H131       32.0280   -0.7723   -6.0293 H         1 UNK         0.0541 
    132 H132       33.6501   -0.5371   -8.7475 H         1 UNK         0.3459 
    133 H133       34.9945   -1.5808   -8.3566 H         1 UNK         0.3459 
    134 H134       33.9284    1.4117   -5.0318 H         1 UNK         0.0612 
    135 H135       33.4603   -0.0124   -4.1506 H         1 UNK         0.0612 
    136 H136       30.4722    1.1827   -2.1706 H         1 UNK         0.0624 
    137 H137       32.1720    0.8263   -1.9807 H         1 UNK         0.0624 
@<TRIPOS>BOND
     1    1    2 1    
     2    1   72 1    
     3    1   73 1    
     4    1   74 1    
     5    2    3 2    
     6    2    4 am   BACKBONE|DICT|INTERRES
     7    4    5 1    
     8    4   75 1    
     9    5    6 1    
    10    5   35 1    
    11    5   76 1    
    12    6    7 1    
    13    6   77 1    
    14    6   78 1    
    15    7    8 1    
    16    8    9 1    
    17    8   79 1    
    18    8   80 1    
    19    9   10 ar   
    20    9   14 ar   
    21   10   11 ar   
    22   10   81 1    
    23   11   12 ar   
    24   11   71 1    
    25   12   13 ar   
    26   12   82 1    
    27   13   14 ar   
    28   13   15 1    
    29   14   83 1    
    30   15   16 1    
    31   15   84 1    
    32   15   85 1    
    33   16   17 1    
    34   17   18 1    
    35   17   86 1    
    36   17   87 1    
    37   18   19 1    
    38   18   37 1    
    39   18   88 1    
    40   19   20 am   BACKBONE|DICT|INTERRES
    41   19   89 1    
    42   20   21 2    
    43   20   22 1    
    44   22   23 1    
    45   22   24 1    
    46   22   90 1    
    47   23   91 1    
    48   23   92 1    
    49   23   93 1    
    50   24   25 am   BACKBONE|DICT|INTERRES
    51   24   94 1    
    52   25   26 2    
    53   25   27 1    
    54   27   28 1    
    55   27   29 1    
    56   27   95 1    
    57   28   96 1    
    58   28   97 1    
    59   28   98 1    
    60   29   30 am   BACKBONE|DICT|INTERRES
    61   29   99 1    
    62   30   31 2    
    63   30   32 1    
    64   32   33 1    
    65   32   34 1    
    66   32  100 1    
    67   33  101 1    
    68   33  102 1    
    69   33  103 1    
    70   34   35 am   BACKBONE|DICT|INTERRES
    71   34  104 1    
    72   35   36 2    
    73   37   38 2    
    74   37   39 am   BACKBONE|DICT|INTERRES
    75   39   40 1    
    76   39  105 1    
    77   40   41 1    
    78   40   42 1    
    79   40  106 1    
    80   41  107 1    
    81   41  108 1    
    82   41  109 1    
    83   42   43 2    
    84   42   44 am   BACKBONE|DICT|INTERRES
    85   44   45 1    
    86   44  110 1    
    87   45   46 1    
    88   45   47 1    
    89   45  111 1    
    90   46  112 1    
    91   46  113 1    
    92   46  114 1    
    93   47   48 2    
    94   47   49 am   BACKBONE|DICT|INTERRES
    95   49   50 1    
    96   49  115 1    
    97   50   51 1    
    98   50   52 1    
    99   50  116 1    
   100   51  117 1    
   101   51  118 1    
   102   51  119 1    
   103   52   53 2    
   104   52   54 am   BACKBONE|DICT|INTERRES
   105   54   55 1    
   106   54  120 1    
   107   55   56 1    
   108   55   57 1    
   109   55  121 1    
   110   56  122 1    
   111   56  123 1    
   112   56  124 1    
   113   57   58 2    
   114   57   59 am   BACKBONE|DICT|INTERRES
   115   59   60 1    
   116   59  125 1    
   117   60   61 1    
   118   60   62 1    
   119   60  126 1    
   120   61  127 1    
   121   61  128 1    
   122   61  129 1    
   123   62   63 2    
   124   62   64 am   BACKBONE|DICT|INTERRES
   125   64   65 1    
   126   64  130 1    
   127   65   66 1    
   128   65   69 1    
   129   65  131 1    
   130   66   67 am   BACKBONE|DICT|INTERRES
   131   66   68 2    
   132   67  132 1    
   133   67  133 1    
   134   69   70 1    
   135   69  134 1    
   136   69  135 1    
   137   70   71 1    
   138   71  136 1    
   139   71  137 1    
@<TRIPOS>SUBSTRUCTURE
     1 UNK         1 GROUP             0       ****    0 ROOT    
