@<TRIPOS>MOLECULE
3R137
137   139    1
SMALL
USER_CHARGES


@<TRIPOS>ATOM
      1 CA         29.8287   -0.8222    1.9935 C.3       0 UNK        -0.2020 
      2 C          29.2397   -1.3614    0.6988 C.2       0 UNK         0.4855 
      3 O          28.9105   -0.5808   -0.1944 O.2       0 UNK        -0.5197 
      4 N          29.1137   -2.6895    0.5885 N.am      1 UNK        -0.4892 
      5 CA         28.5521   -3.3850   -0.5746 C.3       1 UNK         0.0835 
      6 C6         28.8831   -4.9024   -0.5711 C.3       12 UNK        -0.0855 
      7 S7         30.6646   -5.2500   -0.3322 S.3       12 UNK        -0.2931 
      8 C8         31.2681   -5.4772   -2.0387 C.3       12 UNK         0.0378 
      9 C9         30.9395   -4.2881   -2.9304 C.ar      12 UNK        -0.0802 
     10 C10        31.4253   -3.0131   -2.6208 C.ar      12 UNK        -0.0944 
     11 C11        31.0548   -1.9062   -3.3901 C.ar      12 UNK        -0.0787 
     12 C12        30.2299   -2.0882   -4.5033 C.ar      12 UNK        -0.0862 
     13 C13        29.7626   -3.3623   -4.8383 C.ar      12 UNK        -0.0733 
     14 C14        30.1167   -4.4577   -4.0473 C.ar      12 UNK        -0.0832 
     15 C15        28.8671   -3.5578   -6.0484 C.3       12 UNK         0.0240 
     16 S16        27.1157   -3.6282   -5.5622 S.3       12 UNK        -0.2522 
     17 C17        26.3200   -3.5440   -7.2018 C.3       12 UNK        -0.0967 
     18 CA         25.7488   -2.1596   -7.6070 C.3       5 UNK         0.0660 
     19 N          24.5783   -1.7502   -6.8285 N.am      5 UNK        -0.4015 
     20 C          23.5483   -1.0704   -7.3580 C.2       4 UNK         0.4946 
     21 O          23.4545   -0.7844   -8.5525 O.2       4 UNK        -0.5353 
     22 CA         22.4282   -0.6188   -6.4065 C.3       4 UNK         0.0277 
     23 CB         21.3961   -1.7423   -6.2159 C.3       4 UNK        -0.1981 
     24 N          22.9114   -0.1739   -5.1002 N.am      4 UNK        -0.4209 
     25 C          23.7271    0.8698   -4.8906 C.2       3 UNK         0.4942 
     26 O          24.1663    1.5949   -5.7826 O.2       3 UNK        -0.5208 
     27 CA         24.1543    1.1177   -3.4336 C.3       3 UNK         0.0250 
     28 CB         23.1599    2.0572   -2.7332 C.3       3 UNK        -0.1990 
     29 N          24.3010   -0.1161   -2.6513 N.am      3 UNK        -0.4232 
     30 C          25.1638   -1.0984   -2.9446 C.2       2 UNK         0.4993 
     31 O          25.9152   -1.0804   -3.9224 O.2       2 UNK        -0.5286 
     32 CA         25.1518   -2.3255   -2.0316 C.3       2 UNK         0.0209 
     33 CB         24.3432   -3.4710   -2.6644 C.3       2 UNK        -0.1931 
     34 N          26.5328   -2.7500   -1.8246 N.am      2 UNK        -0.4546 
     35 C          27.0320   -3.1467   -0.6492 C.2       1 UNK         0.5154 
     36 O          26.3449   -3.3221    0.3613 O.2       1 UNK        -0.5181 
     37 C          26.8050   -1.0403   -7.6374 C.2       5 UNK         0.5014 
     38 O          27.3686   -0.7931   -8.7016 O.2       5 UNK        -0.5248 
     39 N          27.0398   -0.3605   -6.5010 N.am      6 UNK        -0.4434 
     40 CA         28.0327    0.7133   -6.3550 C.3       6 UNK         0.0363 
     41 CB         28.0913    1.1693   -4.8893 C.3       6 UNK        -0.1936 
     42 C          27.8051    1.9182   -7.2846 C.2       6 UNK         0.5081 
     43 O          28.7706    2.5856   -7.6527 O.2       6 UNK        -0.5248 
     44 N          26.5486    2.1513   -7.6856 N.am      7 UNK        -0.4718 
     45 CA         26.1578    3.1347   -8.6977 C.3       7 UNK         0.0273 
     46 CB         24.6249    3.2555   -8.7014 C.3       7 UNK        -0.1935 
     47 C          26.6726    2.8290  -10.1206 C.2       7 UNK         0.5018 
     48 O          26.6558    3.7342  -10.9563 O.2       7 UNK        -0.5186 
     49 N          27.1021    1.5872  -10.3886 N.am      8 UNK        -0.4240 
     50 CA         27.5663    1.1270  -11.6979 C.3       8 UNK         0.0235 
     51 CB         26.3796    0.5228  -12.4753 C.3       8 UNK        -0.2000 
     52 C          28.7529    0.1559  -11.5645 C.2       8 UNK         0.4941 
     53 O          28.8569   -0.7875  -12.3516 O.2       8 UNK        -0.5273 
     54 N          29.6342    0.3971  -10.5859 N.am      9 UNK        -0.4262 
     55 CA         30.8420   -0.3863  -10.3346 C.3       9 UNK         0.0264 
     56 CB         30.5653   -1.4351   -9.2424 C.3       9 UNK        -0.1955 
     57 C          31.9624    0.5613   -9.9025 C.2       9 UNK         0.5031 
     58 O          31.6882    1.5841   -9.2704 O.2       9 UNK        -0.5390 
     59 N          33.2117    0.1895  -10.2044 N.am      10 UNK        -0.4204 
     60 CA         34.4236    0.9479   -9.8741 C.3       10 UNK         0.0237 
     61 CB         35.5250    0.5939  -10.8923 C.3       10 UNK        -0.1985 
     62 C          34.8758    0.7405   -8.4126 C.2       10 UNK         0.4970 
     63 O          36.0574    0.4926   -8.1642 O.2       10 UNK        -0.4914 
     64 N          33.9293    0.8305   -7.4717 N.am      11 UNK        -0.4285 
     65 CA         34.1744    0.7682   -6.0270 C.3       11 UNK         0.1007 
     66 C          34.8324    2.0804   -5.5158 C.2       11 UNK         0.5703 
     67 N          35.8486    1.9845   -4.6691 N.am      11 UNK        -0.7361 
     68 O          34.4117    3.1827   -5.8636 O.2       11 UNK        -0.4986 
     69 C69        32.8676    0.4238   -5.2659 C.3       12 UNK        -0.0947 
     70 S70        33.1906   -0.1496   -3.5654 S.3       12 UNK        -0.2240 
     71 C71        31.5086   -0.5128   -2.9827 C.3       12 UNK         0.0194 
     72 H72        30.7318   -0.2495    1.7842 H         1 UNK         0.0906 
     73 H73        29.1133   -0.1633    2.4850 H         1 UNK         0.0906 
     74 H74        30.0875   -1.6210    2.6884 H         1 UNK         0.0906 
     75 H75        29.3943   -3.2864    1.3532 H         1 UNK         0.3140 
     76 H76        28.9952   -2.9386   -1.4649 H         1 UNK         0.1085 
     77 H77        28.5455   -5.3690   -1.4986 H         1 UNK         0.0836 
     78 H78        28.3422   -5.4068    0.2322 H         1 UNK         0.0836 
     79 H79        32.3495   -5.6190   -2.0170 H         1 UNK         0.0731 
     80 H80        30.8448   -6.3985   -2.4422 H         1 UNK         0.0731 
     81 H81        32.0536   -2.8762   -1.7511 H         1 UNK         0.1312 
     82 H82        29.9437   -1.2371   -5.1029 H         1 UNK         0.1406 
     83 H83        29.7353   -5.4391   -4.2958 H         1 UNK         0.1631 
     84 H84        29.1366   -4.4789   -6.5674 H         1 UNK         0.0717 
     85 H85        29.0227   -2.7469   -6.7609 H         1 UNK         0.0717 
     86 H86        27.0289   -3.8834   -7.9597 H         1 UNK         0.0934 
     87 H87        25.5168   -4.2822   -7.2172 H         1 UNK         0.0934 
     88 H88        25.4295   -2.2854   -8.6444 H         1 UNK         0.0739 
     89 H89        24.6153   -1.9127   -5.8318 H         1 UNK         0.3093 
     90 H90        21.9256    0.2305   -6.8746 H         1 UNK         0.0818 
     91 H91        20.5454   -1.4044   -5.6239 H         1 UNK         0.0819 
     92 H92        21.0048   -2.0788   -7.1772 H         1 UNK         0.0819 
     93 H93        21.8288   -2.6114   -5.7185 H         1 UNK         0.0819 
     94 H94        22.6037   -0.7019   -4.2971 H         1 UNK         0.3041 
     95 H95        25.1269    1.6115   -3.4560 H         1 UNK         0.0784 
     96 H96        23.0500    2.9907   -3.2874 H         1 UNK         0.0793 
     97 H97        22.1686    1.6099   -2.6491 H         1 UNK         0.0793 
     98 H98        23.4981    2.3174   -1.7300 H         1 UNK         0.0793 
     99 H99        23.7110   -0.2062   -1.8362 H         1 UNK         0.3024 
    100 H100       24.6957   -2.0465   -1.0786 H         1 UNK         0.1171 
    101 H101       23.3070   -3.1750   -2.8319 H         1 UNK         0.0786 
    102 H102       24.3289   -4.3476   -2.0166 H         1 UNK         0.0786 
    103 H103       24.7570   -3.7752   -3.6264 H         1 UNK         0.0786 
    104 H104       27.1454   -2.5829   -2.6142 H         1 UNK         0.2977 
    105 H105       26.5593   -0.6441   -5.6487 H         1 UNK         0.3127 
    106 H106       29.0033    0.2911   -6.6197 H         1 UNK         0.0770 
    107 H107       27.1576    1.6393   -4.5827 H         1 UNK         0.0814 
    108 H108       28.8883    1.8986   -4.7396 H         1 UNK         0.0814 
    109 H109       28.2824    0.3353   -4.2140 H         1 UNK         0.0814 
    110 H110       25.8032    1.6004   -7.2748 H         1 UNK         0.2983 
    111 H111       26.5785    4.0993   -8.4061 H         1 UNK         0.0947 
    112 H112       24.2882    3.9851   -9.4392 H         1 UNK         0.0806 
    113 H113       24.2512    3.5835   -7.7311 H         1 UNK         0.0806 
    114 H114       24.1474    2.3037   -8.9392 H         1 UNK         0.0806 
    115 H115       27.1145    0.8865   -9.6500 H         1 UNK         0.3000 
    116 H116       27.9481    1.9763  -12.2683 H         1 UNK         0.0850 
    117 H117       26.6791    0.2145  -13.4777 H         1 UNK         0.0810 
    118 H118       25.5711    1.2449  -12.5902 H         1 UNK         0.0810 
    119 H119       25.9766   -0.3541  -11.9670 H         1 UNK         0.0810 
    120 H120       29.5276    1.2155   -9.9980 H         1 UNK         0.3040 
    121 H121       31.1557   -0.8917  -11.2507 H         1 UNK         0.0766 
    122 H122       31.4502   -2.0396   -9.0402 H         1 UNK         0.0812 
    123 H123       29.7677   -2.1153   -9.5420 H         1 UNK         0.0812 
    124 H124       30.2662   -0.9671   -8.3042 H         1 UNK         0.0812 
    125 H125       33.3529   -0.6902  -10.6811 H         1 UNK         0.3205 
    126 H126       34.2079    2.0131   -9.9843 H         1 UNK         0.0754 
    127 H127       36.4224    1.1909  -10.7237 H         1 UNK         0.0769 
    128 H128       35.1989    0.7899  -11.9140 H         1 UNK         0.0769 
    129 H129       35.8136   -0.4560  -10.8269 H         1 UNK         0.0769 
    130 H130       32.9989    1.1054   -7.7664 H         1 UNK         0.2981 
    131 H131       34.8764   -0.0523   -5.8625 H         1 UNK         0.0541 
    132 H132       36.2794    2.8264   -4.3209 H         1 UNK         0.3459 
    133 H133       36.1849    1.0846   -4.3633 H         1 UNK         0.3459 
    134 H134       32.3379   -0.3774   -5.7837 H         1 UNK         0.0612 
    135 H135       32.1871    1.2773   -5.2423 H         1 UNK         0.0612 
    136 H136       30.8156    0.2454   -3.3506 H         1 UNK         0.0624 
    137 H137       31.4912   -0.4328   -1.8945 H         1 UNK         0.0624 
@<TRIPOS>BOND
     1    1    2 1    
     2    1   72 1    
     3    1   73 1    
     4    1   74 1    
     5    2    3 2    
     6    2    4 am   BACKBONE|DICT|INTERRES
     7    4    5 1    
     8    4   75 1    
     9    5    6 1    
    10    5   35 1    
    11    5   76 1    
    12    6    7 1    
    13    6   77 1    
    14    6   78 1    
    15    7    8 1    
    16    8    9 1    
    17    8   79 1    
    18    8   80 1    
    19    9   10 ar   
    20    9   14 ar   
    21   10   11 ar   
    22   10   81 1    
    23   11   12 ar   
    24   11   71 1    
    25   12   13 ar   
    26   12   82 1    
    27   13   14 ar   
    28   13   15 1    
    29   14   83 1    
    30   15   16 1    
    31   15   84 1    
    32   15   85 1    
    33   16   17 1    
    34   17   18 1    
    35   17   86 1    
    36   17   87 1    
    37   18   19 1    
    38   18   37 1    
    39   18   88 1    
    40   19   20 am   BACKBONE|DICT|INTERRES
    41   19   89 1    
    42   20   21 2    
    43   20   22 1    
    44   22   23 1    
    45   22   24 1    
    46   22   90 1    
    47   23   91 1    
    48   23   92 1    
    49   23   93 1    
    50   24   25 am   BACKBONE|DICT|INTERRES
    51   24   94 1    
    52   25   26 2    
    53   25   27 1    
    54   27   28 1    
    55   27   29 1    
    56   27   95 1    
    57   28   96 1    
    58   28   97 1    
    59   28   98 1    
    60   29   30 am   BACKBONE|DICT|INTERRES
    61   29   99 1    
    62   30   31 2    
    63   30   32 1    
    64   32   33 1    
    65   32   34 1    
    66   32  100 1    
    67   33  101 1    
    68   33  102 1    
    69   33  103 1    
    70   34   35 am   BACKBONE|DICT|INTERRES
    71   34  104 1    
    72   35   36 2    
    73   37   38 2    
    74   37   39 am   BACKBONE|DICT|INTERRES
    75   39   40 1    
    76   39  105 1    
    77   40   41 1    
    78   40   42 1    
    79   40  106 1    
    80   41  107 1    
    81   41  108 1    
    82   41  109 1    
    83   42   43 2    
    84   42   44 am   BACKBONE|DICT|INTERRES
    85   44   45 1    
    86   44  110 1    
    87   45   46 1    
    88   45   47 1    
    89   45  111 1    
    90   46  112 1    
    91   46  113 1    
    92   46  114 1    
    93   47   48 2    
    94   47   49 am   BACKBONE|DICT|INTERRES
    95   49   50 1    
    96   49  115 1    
    97   50   51 1    
    98   50   52 1    
    99   50  116 1    
   100   51  117 1    
   101   51  118 1    
   102   51  119 1    
   103   52   53 2    
   104   52   54 am   BACKBONE|DICT|INTERRES
   105   54   55 1    
   106   54  120 1    
   107   55   56 1    
   108   55   57 1    
   109   55  121 1    
   110   56  122 1    
   111   56  123 1    
   112   56  124 1    
   113   57   58 2    
   114   57   59 am   BACKBONE|DICT|INTERRES
   115   59   60 1    
   116   59  125 1    
   117   60   61 1    
   118   60   62 1    
   119   60  126 1    
   120   61  127 1    
   121   61  128 1    
   122   61  129 1    
   123   62   63 2    
   124   62   64 am   BACKBONE|DICT|INTERRES
   125   64   65 1    
   126   64  130 1    
   127   65   66 1    
   128   65   69 1    
   129   65  131 1    
   130   66   67 am   BACKBONE|DICT|INTERRES
   131   66   68 2    
   132   67  132 1    
   133   67  133 1    
   134   69   70 1    
   135   69  134 1    
   136   69  135 1    
   137   70   71 1    
   138   71  136 1    
   139   71  137 1    
@<TRIPOS>SUBSTRUCTURE
     1 UNK         1 GROUP             0       ****    0 ROOT    
