@<TRIPOS>MOLECULE
3R137
137   139    1
SMALL
USER_CHARGES


@<TRIPOS>ATOM
      1 CA         28.2448   -0.0934    2.3561 C.3       0 UNK        -0.2020 
      2 C          27.4643   -1.4021    2.2608 C.2       0 UNK         0.4855 
      3 O          26.9143   -1.8481    3.2656 O.2       0 UNK        -0.5197 
      4 N          27.3846   -2.0595    1.0941 N.am      1 UNK        -0.4892 
      5 CA         27.9544   -1.6620   -0.2031 C.3       1 UNK         0.0835 
      6 C6         27.8737   -2.8112   -1.2408 C.3       12 UNK        -0.0855 
      7 S7         28.6409   -4.3698   -0.6861 S.3       12 UNK        -0.2931 
      8 C8         30.3194   -4.2450   -1.3929 C.3       12 UNK         0.0378 
      9 C9         30.3679   -4.1168   -2.9152 C.ar      12 UNK        -0.0802 
     10 C10        31.3359   -3.2929   -3.4947 C.ar      12 UNK        -0.0944 
     11 C11        31.4328   -3.1637   -4.8829 C.ar      12 UNK        -0.0787 
     12 C12        30.5432   -3.8685   -5.7027 C.ar      12 UNK        -0.0862 
     13 C13        29.5804   -4.7148   -5.1391 C.ar      12 UNK        -0.0733 
     14 C14        29.4984   -4.8331   -3.7471 C.ar      12 UNK        -0.0832 
     15 C15        28.6706   -5.5578   -6.0240 C.3       12 UNK         0.0240 
     16 S16        27.0306   -4.7969   -6.2684 S.3       12 UNK        -0.2522 
     17 C17        27.0137   -4.4420   -8.0672 C.3       12 UNK        -0.0967 
     18 CA         26.6414   -2.9834   -8.4360 C.3       5 UNK         0.0660 
     19 N          25.3357   -2.5810   -7.9046 N.am      5 UNK        -0.4015 
     20 C          24.6980   -1.4455   -8.2255 C.2       4 UNK         0.4946 
     21 O          25.1156   -0.6349   -9.0509 O.2       4 UNK        -0.5353 
     22 CA         23.3905   -1.1349   -7.4775 C.3       4 UNK         0.0277 
     23 CB         22.1893   -1.7323   -8.2276 C.3       4 UNK        -0.1981 
     24 N          23.3722   -1.5856   -6.0823 N.am      4 UNK        -0.4209 
     25 C          24.2472   -1.2153   -5.1369 C.2       3 UNK         0.4942 
     26 O          25.2198   -0.4852   -5.3438 O.2       3 UNK        -0.5208 
     27 CA         24.0197   -1.8313   -3.7473 C.3       3 UNK         0.0250 
     28 CB         24.5892   -3.2602   -3.7041 C.3       3 UNK        -0.1990 
     29 N          24.6349   -1.0596   -2.6686 N.am      3 UNK        -0.4232 
     30 C          24.3051    0.1800   -2.2778 C.2       2 UNK         0.4993 
     31 O          23.3950    0.8367   -2.7860 O.2       2 UNK        -0.5286 
     32 CA         25.0958    0.7705   -1.0891 C.3       2 UNK         0.0209 
     33 CB         24.1486    1.3201   -0.0071 C.3       2 UNK        -0.1931 
     34 N          25.9862   -0.2199   -0.4709 N.am      2 UNK        -0.4546 
     35 C          27.2704   -0.4143   -0.8007 C.2       1 UNK         0.5154 
     36 O          27.8978    0.3154   -1.5659 O.2       1 UNK        -0.5181 
     37 C          27.7537   -1.9880   -8.0559 C.2       5 UNK         0.5014 
     38 O          28.5119   -1.5625   -8.9275 O.2       5 UNK        -0.5248 
     39 N          27.7968   -1.6061   -6.7730 N.am      6 UNK        -0.4434 
     40 CA         28.7342   -0.6311   -6.2252 C.3       6 UNK         0.0363 
     41 CB         28.6653   -0.6548   -4.6914 C.3       6 UNK        -0.1936 
     42 C          28.4729    0.7776   -6.7690 C.2       6 UNK         0.5081 
     43 O          29.4225    1.4642   -7.1414 O.2       6 UNK        -0.5248 
     44 N          27.1918    1.1636   -6.8528 N.am      7 UNK        -0.4718 
     45 CA         26.7476    2.4353   -7.4280 C.3       7 UNK         0.0273 
     46 CB         25.2349    2.5978   -7.2139 C.3       7 UNK        -0.1935 
     47 C          27.1105    2.5847   -8.9167 C.2       7 UNK         0.5018 
     48 O          27.5426    3.6640   -9.3230 O.2       7 UNK        -0.5186 
     49 N          26.9450    1.5051   -9.6945 N.am      8 UNK        -0.4240 
     50 CA         27.3000    1.4469  -11.1126 C.3       8 UNK         0.0235 
     51 CB         26.6342    0.2254  -11.7674 C.3       8 UNK        -0.2000 
     52 C          28.8184    1.4246  -11.3463 C.2       8 UNK         0.4941 
     53 O          29.3061    2.1806  -12.1877 O.2       8 UNK        -0.5273 
     54 N          29.5355    0.5508  -10.6246 N.am      9 UNK        -0.4262 
     55 CA         30.9761    0.3452  -10.7968 C.3       9 UNK         0.0264 
     56 CB         31.3780   -1.0066  -10.1824 C.3       9 UNK        -0.1955 
     57 C          31.8416    1.4650  -10.1997 C.2       9 UNK         0.5031 
     58 O          32.9558    1.6713  -10.6810 O.2       9 UNK        -0.5390 
     59 N          31.3589    2.1060   -9.1237 N.am      10 UNK        -0.4204 
     60 CA         32.0529    3.0687   -8.2525 C.3       10 UNK         0.0237 
     61 CB         32.5470    4.3014   -9.0386 C.3       10 UNK        -0.1985 
     62 C          33.1693    2.4451   -7.3860 C.2       10 UNK         0.4970 
     63 O          33.7676    3.1598   -6.5808 O.2       10 UNK        -0.4914 
     64 N          33.4148    1.1371   -7.5475 N.am      11 UNK        -0.4285 
     65 CA         34.3918    0.3093   -6.8226 C.3       11 UNK         0.1007 
     66 C          35.8821    0.7203   -7.0298 C.2       11 UNK         0.5703 
     67 N          36.2213    1.4443   -8.0903 N.am      11 UNK        -0.7361 
     68 O          36.7514    0.3519   -6.2430 O.2       11 UNK        -0.4986 
     69 C69        34.0144    0.0970   -5.3288 C.3       12 UNK        -0.0947 
     70 S70        32.3192   -0.5391   -5.0908 S.3       12 UNK        -0.2240 
     71 C71        32.5406   -2.3044   -5.4781 C.3       12 UNK         0.0194 
     72 H72        27.6769    0.7269    1.9179 H         1 UNK         0.0906 
     73 H73        28.4353    0.1572    3.3995 H         1 UNK         0.0906 
     74 H74        29.2113   -0.1605    1.8587 H         1 UNK         0.0906 
     75 H75        26.9028   -2.9479    1.0853 H         1 UNK         0.3140 
     76 H76        29.0089   -1.4198   -0.0585 H         1 UNK         0.1085 
     77 H77        26.8331   -3.0424   -1.4751 H         1 UNK         0.0836 
     78 H78        28.3269   -2.5052   -2.1846 H         1 UNK         0.0836 
     79 H79        30.8843   -5.1321   -1.1038 H         1 UNK         0.0731 
     80 H80        30.8202   -3.3961   -0.9244 H         1 UNK         0.0731 
     81 H81        32.0293   -2.7520   -2.8648 H         1 UNK         0.1312 
     82 H82        30.6173   -3.7817   -6.7781 H         1 UNK         0.1406 
     83 H83        28.7614   -5.4946   -3.3123 H         1 UNK         0.1631 
     84 H84        28.5250   -6.5352   -5.5617 H         1 UNK         0.0717 
     85 H85        29.1585   -5.7606   -6.9776 H         1 UNK         0.0717 
     86 H86        27.9726   -4.7003   -8.5193 H         1 UNK         0.0934 
     87 H87        26.2936   -5.1216   -8.5257 H         1 UNK         0.0934 
     88 H88        26.5555   -2.9426   -9.5243 H         1 UNK         0.0739 
     89 H89        24.9275   -3.1895   -7.2107 H         1 UNK         0.3093 
     90 H90        23.2744   -0.0499   -7.4650 H         1 UNK         0.0818 
     91 H91        21.2457   -1.4289   -7.7737 H         1 UNK         0.0819 
     92 H92        22.1699   -1.3931   -9.2646 H         1 UNK         0.0819 
     93 H93        22.2213   -2.8225   -8.2424 H         1 UNK         0.0819 
     94 H94        22.6150   -2.2016   -5.8219 H         1 UNK         0.3041 
     95 H95        22.9449   -1.8688   -3.5577 H         1 UNK         0.0784 
     96 H96        24.1374   -3.8924   -4.4697 H         1 UNK         0.0793 
     97 H97        25.6674   -3.2701   -3.8712 H         1 UNK         0.0793 
     98 H98        24.3953   -3.7371   -2.7431 H         1 UNK         0.0793 
     99 H99        25.4097   -1.4964   -2.1983 H         1 UNK         0.3024 
    100 H100       25.6846    1.6027   -1.4824 H         1 UNK         0.1171 
    101 H101       24.7058    1.7538    0.8236 H         1 UNK         0.0786 
    102 H102       23.5074    2.1063   -0.4080 H         1 UNK         0.0786 
    103 H103       23.4986    0.5417    0.3942 H         1 UNK         0.0786 
    104 H104       25.5613   -0.8637    0.1830 H         1 UNK         0.2977 
    105 H105       27.1057   -1.9771   -6.1371 H         1 UNK         0.3127 
    106 H106       29.7394   -0.9267   -6.5310 H         1 UNK         0.0770 
    107 H107       27.6742   -0.3932   -4.3203 H         1 UNK         0.0814 
    108 H108       29.3708    0.0548   -4.2578 H         1 UNK         0.0814 
    109 H109       28.9210   -1.6400   -4.3045 H         1 UNK         0.0814 
    110 H110       26.4754    0.5426   -6.4851 H         1 UNK         0.2983 
    111 H111       27.2568    3.2337   -6.8839 H         1 UNK         0.0947 
    112 H112       24.8965    3.5760   -7.5578 H         1 UNK         0.0806 
    113 H113       24.9697    2.5127   -6.1597 H         1 UNK         0.0806 
    114 H114       24.6687    1.8465   -7.7638 H         1 UNK         0.0806 
    115 H115       26.5132    0.6742   -9.2972 H         1 UNK         0.3000 
    116 H116       26.9040    2.3429  -11.5957 H         1 UNK         0.0850 
    117 H117       26.8863    0.1620  -12.8268 H         1 UNK         0.0810 
    118 H118       25.5479    0.2824  -11.6954 H         1 UNK         0.0810 
    119 H119       26.9495   -0.7075  -11.2981 H         1 UNK         0.0810 
    120 H120       29.0604   -0.0702   -9.9719 H         1 UNK         0.3040 
    121 H121       31.1887    0.3034  -11.8674 H         1 UNK         0.0766 
    122 H122       31.1906   -1.0354   -9.1079 H         1 UNK         0.0812 
    123 H123       32.4390   -1.2085  -10.3362 H         1 UNK         0.0812 
    124 H124       30.8244   -1.8280  -10.6379 H         1 UNK         0.0812 
    125 H125       30.4582    1.8074   -8.7548 H         1 UNK         0.3205 
    126 H126       31.2961    3.4173   -7.5484 H         1 UNK         0.0754 
    127 H127       33.3739    4.0581   -9.7059 H         1 UNK         0.0769 
    128 H128       31.7466    4.7356   -9.6379 H         1 UNK         0.0769 
    129 H129       32.9009    5.0784   -8.3600 H         1 UNK         0.0769 
    130 H130       32.8771    0.6522   -8.2477 H         1 UNK         0.2981 
    131 H131       34.3297   -0.6691   -7.2993 H         1 UNK         0.0541 
    132 H132       35.5207    1.7398   -8.7520 H         1 UNK         0.3459 
    133 H133       37.1869    1.6984   -8.2269 H         1 UNK         0.3459 
    134 H134       34.7079   -0.5937   -4.8464 H         1 UNK         0.0612 
    135 H135       34.0999    1.0375   -4.7825 H         1 UNK         0.0612 
    136 H136       32.5881   -2.4254   -6.5612 H         1 UNK         0.0624 
    137 H137       33.4974   -2.6497   -5.0839 H         1 UNK         0.0624 
@<TRIPOS>BOND
     1    1    2 1    
     2    1   72 1    
     3    1   73 1    
     4    1   74 1    
     5    2    3 2    
     6    2    4 am   BACKBONE|DICT|INTERRES
     7    4    5 1    
     8    4   75 1    
     9    5    6 1    
    10    5   35 1    
    11    5   76 1    
    12    6    7 1    
    13    6   77 1    
    14    6   78 1    
    15    7    8 1    
    16    8    9 1    
    17    8   79 1    
    18    8   80 1    
    19    9   10 ar   
    20    9   14 ar   
    21   10   11 ar   
    22   10   81 1    
    23   11   12 ar   
    24   11   71 1    
    25   12   13 ar   
    26   12   82 1    
    27   13   14 ar   
    28   13   15 1    
    29   14   83 1    
    30   15   16 1    
    31   15   84 1    
    32   15   85 1    
    33   16   17 1    
    34   17   18 1    
    35   17   86 1    
    36   17   87 1    
    37   18   19 1    
    38   18   37 1    
    39   18   88 1    
    40   19   20 am   BACKBONE|DICT|INTERRES
    41   19   89 1    
    42   20   21 2    
    43   20   22 1    
    44   22   23 1    
    45   22   24 1    
    46   22   90 1    
    47   23   91 1    
    48   23   92 1    
    49   23   93 1    
    50   24   25 am   BACKBONE|DICT|INTERRES
    51   24   94 1    
    52   25   26 2    
    53   25   27 1    
    54   27   28 1    
    55   27   29 1    
    56   27   95 1    
    57   28   96 1    
    58   28   97 1    
    59   28   98 1    
    60   29   30 am   BACKBONE|DICT|INTERRES
    61   29   99 1    
    62   30   31 2    
    63   30   32 1    
    64   32   33 1    
    65   32   34 1    
    66   32  100 1    
    67   33  101 1    
    68   33  102 1    
    69   33  103 1    
    70   34   35 am   BACKBONE|DICT|INTERRES
    71   34  104 1    
    72   35   36 2    
    73   37   38 2    
    74   37   39 am   BACKBONE|DICT|INTERRES
    75   39   40 1    
    76   39  105 1    
    77   40   41 1    
    78   40   42 1    
    79   40  106 1    
    80   41  107 1    
    81   41  108 1    
    82   41  109 1    
    83   42   43 2    
    84   42   44 am   BACKBONE|DICT|INTERRES
    85   44   45 1    
    86   44  110 1    
    87   45   46 1    
    88   45   47 1    
    89   45  111 1    
    90   46  112 1    
    91   46  113 1    
    92   46  114 1    
    93   47   48 2    
    94   47   49 am   BACKBONE|DICT|INTERRES
    95   49   50 1    
    96   49  115 1    
    97   50   51 1    
    98   50   52 1    
    99   50  116 1    
   100   51  117 1    
   101   51  118 1    
   102   51  119 1    
   103   52   53 2    
   104   52   54 am   BACKBONE|DICT|INTERRES
   105   54   55 1    
   106   54  120 1    
   107   55   56 1    
   108   55   57 1    
   109   55  121 1    
   110   56  122 1    
   111   56  123 1    
   112   56  124 1    
   113   57   58 2    
   114   57   59 am   BACKBONE|DICT|INTERRES
   115   59   60 1    
   116   59  125 1    
   117   60   61 1    
   118   60   62 1    
   119   60  126 1    
   120   61  127 1    
   121   61  128 1    
   122   61  129 1    
   123   62   63 2    
   124   62   64 am   BACKBONE|DICT|INTERRES
   125   64   65 1    
   126   64  130 1    
   127   65   66 1    
   128   65   69 1    
   129   65  131 1    
   130   66   67 am   BACKBONE|DICT|INTERRES
   131   66   68 2    
   132   67  132 1    
   133   67  133 1    
   134   69   70 1    
   135   69  134 1    
   136   69  135 1    
   137   70   71 1    
   138   71  136 1    
   139   71  137 1    
@<TRIPOS>SUBSTRUCTURE
     1 UNK         1 GROUP             0       ****    0 ROOT    
