@<TRIPOS>MOLECULE
3R137
137   139    1
SMALL
USER_CHARGES


@<TRIPOS>ATOM
      1 CA         29.2690   -5.7508   -4.7429 C.3       0 UNK        -0.2020 
      2 C          28.1389   -5.4313   -3.7773 C.2       0 UNK         0.4855 
      3 O          27.0001   -5.8407   -4.0058 O.2       0 UNK        -0.5197 
      4 N          28.4542   -4.7090   -2.6957 N.am      1 UNK        -0.4892 
      5 CA         27.4968   -4.1985   -1.7099 C.3       1 UNK         0.0835 
      6 C6         28.0925   -4.2596   -0.2693 C.3       12 UNK        -0.0855 
      7 S7         29.1831   -2.8933    0.2806 S.3       12 UNK        -0.2931 
      8 C8         30.8501   -3.4116   -0.2731 C.3       12 UNK         0.0378 
      9 C9         31.1247   -3.1612   -1.7562 C.ar      12 UNK        -0.0802 
     10 C10        32.0104   -3.9915   -2.4514 C.ar      12 UNK        -0.0944 
     11 C11        32.2467   -3.8124   -3.8206 C.ar      12 UNK        -0.0787 
     12 C12        31.5639   -2.7936   -4.5006 C.ar      12 UNK        -0.0862 
     13 C13        30.6944   -1.9452   -3.8125 C.ar      12 UNK        -0.0733 
     14 C14        30.5033   -2.1147   -2.4428 C.ar      12 UNK        -0.0832 
     15 C15        29.8621   -0.9126   -4.5452 C.3       12 UNK         0.0240 
     16 S16        30.3171    0.8001   -4.1406 S.3       12 UNK        -0.2522 
     17 C17        28.7270    1.6971   -4.3005 C.3       12 UNK        -0.0967 
     18 CA         28.0025    1.5036   -5.6596 C.3       5 UNK         0.0660 
     19 N          27.3144    0.2132   -5.7583 N.am      5 UNK        -0.4015 
     20 C          26.9088   -0.3511   -6.9019 C.2       4 UNK         0.4946 
     21 O          27.0350    0.1789   -8.0032 O.2       4 UNK        -0.5353 
     22 CA         26.2099   -1.7132   -6.7921 C.3       4 UNK         0.0277 
     23 CB         27.2409   -2.8521   -6.7288 C.3       4 UNK        -0.1981 
     24 N          25.3218   -1.7735   -5.6288 N.am      4 UNK        -0.4209 
     25 C          24.1412   -1.1383   -5.5652 C.2       3 UNK         0.4942 
     26 O          23.6675   -0.4909   -6.4988 O.2       3 UNK        -0.5208 
     27 CA         23.3636   -1.2040   -4.2374 C.3       3 UNK         0.0250 
     28 CB         22.3981   -2.3997   -4.2410 C.3       3 UNK        -0.1990 
     29 N          24.2144   -1.2711   -3.0462 N.am      3 UNK        -0.4232 
     30 C          25.1062   -0.3391   -2.6827 C.2       2 UNK         0.4993 
     31 O          25.3104    0.6990   -3.3143 O.2       2 UNK        -0.5286 
     32 CA         25.9601   -0.6436   -1.4381 C.3       2 UNK         0.0209 
     33 CB         25.2595   -0.1306   -0.1704 C.3       2 UNK        -0.1931 
     34 N          26.3385   -2.0546   -1.2505 N.am      2 UNK        -0.4546 
     35 C          26.9442   -2.8246   -2.1676 C.2       1 UNK         0.5154 
     36 O          27.0680   -2.4776   -3.3447 O.2       1 UNK        -0.5181 
     37 C          27.0192    2.6522   -5.9551 C.2       5 UNK         0.5014 
     38 O          27.3983    3.6033   -6.6383 O.2       5 UNK        -0.5248 
     39 N          25.7579    2.5140   -5.5163 N.am      6 UNK        -0.4434 
     40 CA         24.6423    3.3925   -5.8864 C.3       6 UNK         0.0363 
     41 CB         23.3943    2.9943   -5.0831 C.3       6 UNK        -0.1936 
     42 C          24.3356    3.3888   -7.3984 C.2       6 UNK         0.5081 
     43 O          23.9072    4.4130   -7.9296 O.2       6 UNK        -0.5248 
     44 N          24.5949    2.2573   -8.0685 N.am      7 UNK        -0.4718 
     45 CA         24.5096    2.0901   -9.5227 C.3       7 UNK         0.0273 
     46 CB         24.0977    0.6389   -9.8286 C.3       7 UNK        -0.1935 
     47 C          25.8173    2.4633  -10.2550 C.2       7 UNK         0.5018 
     48 O          25.8921    2.2704  -11.4691 O.2       7 UNK        -0.5186 
     49 N          26.8162    2.9808   -9.5216 N.am      8 UNK        -0.4240 
     50 CA         28.1481    3.4061   -9.9709 C.3       8 UNK         0.0235 
     51 CB         28.0557    4.5374  -11.0178 C.3       8 UNK        -0.2000 
     52 C          29.0766    2.2581  -10.4170 C.2       8 UNK         0.4941 
     53 O          30.0906    2.5241  -11.0647 O.2       8 UNK        -0.5273 
     54 N          28.7723    1.0143  -10.0251 N.am      9 UNK        -0.4262 
     55 CA         29.6057   -0.1693  -10.2421 C.3       9 UNK         0.0264 
     56 CB         28.6989   -1.3628  -10.5980 C.3       9 UNK        -0.1955 
     57 C          30.4657   -0.4237   -8.9915 C.2       9 UNK         0.5031 
     58 O          30.3737   -1.4875   -8.3756 O.2       9 UNK        -0.5390 
     59 N          31.2623    0.5838   -8.6140 N.am      10 UNK        -0.4204 
     60 CA         32.1486    0.5510   -7.4526 C.3       10 UNK         0.0237 
     61 CB         32.5280    1.9887   -7.0641 C.3       10 UNK        -0.1985 
     62 C          33.4021   -0.2946   -7.7168 C.2       10 UNK         0.4970 
     63 O          33.9592   -0.2329   -8.8157 O.2       10 UNK        -0.4914 
     64 N          33.8347   -1.0371   -6.6928 N.am      11 UNK        -0.4285 
     65 CA         35.0883   -1.8021   -6.6916 C.3       11 UNK         0.1007 
     66 C          36.3160   -0.8859   -6.4393 C.2       11 UNK         0.5703 
     67 N          37.4777   -1.2488   -6.9658 N.am      11 UNK        -0.7361 
     68 O          36.2353    0.1272   -5.7460 O.2       11 UNK        -0.4986 
     69 C69        35.0420   -2.9670   -5.6691 C.3       12 UNK        -0.0947 
     70 S70        33.8315   -4.2431   -6.1503 S.3       12 UNK        -0.2240 
     71 C71        33.1942   -4.7849   -4.5271 C.3       12 UNK         0.0194 
     72 H72        30.2053   -5.9128   -4.2105 H         1 UNK         0.0906 
     73 H73        29.0462   -6.6543   -5.3099 H         1 UNK         0.0906 
     74 H74        29.4078   -4.9304   -5.4468 H         1 UNK         0.0906 
     75 H75        29.3936   -4.3444   -2.6033 H         1 UNK         0.3140 
     76 H76        26.6307   -4.8642   -1.7106 H         1 UNK         0.1085 
     77 H77        27.2683   -4.2958    0.4451 H         1 UNK         0.0836 
     78 H78        28.6167   -5.2059   -0.1246 H         1 UNK         0.0836 
     79 H79        30.9931   -4.4656   -0.0296 H         1 UNK         0.0731 
     80 H80        31.5909   -2.8584    0.3054 H         1 UNK         0.0731 
     81 H81        32.5092   -4.7954   -1.9264 H         1 UNK         0.1312 
     82 H82        31.6772   -2.6741   -5.5689 H         1 UNK         0.1406 
     83 H83        29.8236   -1.4494   -1.9287 H         1 UNK         0.1631 
     84 H84        28.8383   -1.0742   -4.2303 H         1 UNK         0.0717 
     85 H85        29.8869   -1.0688   -5.6243 H         1 UNK         0.0717 
     86 H86        28.0754    1.4200   -3.4698 H         1 UNK         0.0934 
     87 H87        28.9650    2.7517   -4.1454 H         1 UNK         0.0934 
     88 H88        28.7593    1.5352   -6.4475 H         1 UNK         0.0739 
     89 H89        27.1136   -0.2646   -4.8911 H         1 UNK         0.3093 
     90 H90        25.6100   -1.8521   -7.6942 H         1 UNK         0.0818 
     91 H91        27.8759   -2.7817   -5.8460 H         1 UNK         0.0819 
     92 H92        26.7541   -3.8272   -6.7099 H         1 UNK         0.0819 
     93 H93        27.8978   -2.8329   -7.5995 H         1 UNK         0.0819 
     94 H94        25.6817   -2.2411   -4.8019 H         1 UNK         0.3041 
     95 H95        22.7725   -0.2888   -4.1633 H         1 UNK         0.0784 
     96 H96        21.7343   -2.3622   -5.1061 H         1 UNK         0.0793 
     97 H97        22.9321   -3.3501   -4.2809 H         1 UNK         0.0793 
     98 H98        21.7673   -2.4043   -3.3518 H         1 UNK         0.0793 
     99 H99        24.1355   -2.0988   -2.4735 H         1 UNK         0.3024 
    100 H100       26.8905   -0.0841   -1.5577 H         1 UNK         0.1171 
    101 H101       24.9849    0.9205   -0.2729 H         1 UNK         0.0786 
    102 H102       25.9092   -0.2086    0.7016 H         1 UNK         0.0786 
    103 H103       24.3456   -0.6877    0.0396 H         1 UNK         0.0786 
    104 H104       26.2752   -2.4070   -0.3061 H         1 UNK         0.2977 
    105 H105       25.5414    1.7435   -4.8870 H         1 UNK         0.3127 
    106 H106       24.9187    4.4118   -5.6091 H         1 UNK         0.0770 
    107 H107       23.0692    1.9813   -5.3217 H         1 UNK         0.0814 
    108 H108       22.5610    3.6639   -5.2997 H         1 UNK         0.0814 
    109 H109       23.5798    3.0424   -4.0099 H         1 UNK         0.0814 
    110 H110       24.9281    1.4548   -7.5500 H         1 UNK         0.2983 
    111 H111       23.7301    2.7487   -9.9119 H         1 UNK         0.0947 
    112 H112       23.9341    0.4934  -10.8971 H         1 UNK         0.0806 
    113 H113       23.1698    0.3745   -9.3209 H         1 UNK         0.0806 
    114 H114       24.8620   -0.0732   -9.5173 H         1 UNK         0.0806 
    115 H115       26.6597    3.0815   -8.5249 H         1 UNK         0.3000 
    116 H116       28.6260    3.8302   -9.0867 H         1 UNK         0.0850 
    117 H117       29.0370    4.9717  -11.2127 H         1 UNK         0.0810 
    118 H118       27.4097    5.3451  -10.6737 H         1 UNK         0.0810 
    119 H119       27.6677    4.1783  -11.9713 H         1 UNK         0.0810 
    120 H120       27.9726    0.8713   -9.4084 H         1 UNK         0.3040 
    121 H121       30.2857   -0.0080  -11.0811 H         1 UNK         0.0766 
    122 H122       28.1186   -1.1625  -11.4986 H         1 UNK         0.0812 
    123 H123       27.9985   -1.5939   -9.7953 H         1 UNK         0.0812 
    124 H124       29.2899   -2.2603  -10.7844 H         1 UNK         0.0812 
    125 H125       31.3091    1.4027   -9.2049 H         1 UNK         0.3205 
    126 H126       31.6029    0.1049   -6.6231 H         1 UNK         0.0754 
    127 H127       33.1720    1.9971   -6.1835 H         1 UNK         0.0769 
    128 H128       31.6439    2.5791   -6.8214 H         1 UNK         0.0769 
    129 H129       33.0646    2.4969   -7.8664 H         1 UNK         0.0769 
    130 H130       33.3517   -0.9887   -5.8087 H         1 UNK         0.2981 
    131 H131       35.2142   -2.2384   -7.6850 H         1 UNK         0.0541 
    132 H132       37.5590   -2.0831   -7.5262 H         1 UNK         0.3459 
    133 H133       38.2899   -0.6744   -6.8026 H         1 UNK         0.3459 
    134 H134       36.0141   -3.4579   -5.5947 H         1 UNK         0.0612 
    135 H135       34.8102   -2.5915   -4.6706 H         1 UNK         0.0612 
    136 H136       34.0458   -5.0051   -3.8813 H         1 UNK         0.0624 
    137 H137       32.6671   -5.7284   -4.6723 H         1 UNK         0.0624 
@<TRIPOS>BOND
     1    1    2 1    
     2    1   72 1    
     3    1   73 1    
     4    1   74 1    
     5    2    3 2    
     6    2    4 am   BACKBONE|DICT|INTERRES
     7    4    5 1    
     8    4   75 1    
     9    5    6 1    
    10    5   35 1    
    11    5   76 1    
    12    6    7 1    
    13    6   77 1    
    14    6   78 1    
    15    7    8 1    
    16    8    9 1    
    17    8   79 1    
    18    8   80 1    
    19    9   10 ar   
    20    9   14 ar   
    21   10   11 ar   
    22   10   81 1    
    23   11   12 ar   
    24   11   71 1    
    25   12   13 ar   
    26   12   82 1    
    27   13   14 ar   
    28   13   15 1    
    29   14   83 1    
    30   15   16 1    
    31   15   84 1    
    32   15   85 1    
    33   16   17 1    
    34   17   18 1    
    35   17   86 1    
    36   17   87 1    
    37   18   19 1    
    38   18   37 1    
    39   18   88 1    
    40   19   20 am   BACKBONE|DICT|INTERRES
    41   19   89 1    
    42   20   21 2    
    43   20   22 1    
    44   22   23 1    
    45   22   24 1    
    46   22   90 1    
    47   23   91 1    
    48   23   92 1    
    49   23   93 1    
    50   24   25 am   BACKBONE|DICT|INTERRES
    51   24   94 1    
    52   25   26 2    
    53   25   27 1    
    54   27   28 1    
    55   27   29 1    
    56   27   95 1    
    57   28   96 1    
    58   28   97 1    
    59   28   98 1    
    60   29   30 am   BACKBONE|DICT|INTERRES
    61   29   99 1    
    62   30   31 2    
    63   30   32 1    
    64   32   33 1    
    65   32   34 1    
    66   32  100 1    
    67   33  101 1    
    68   33  102 1    
    69   33  103 1    
    70   34   35 am   BACKBONE|DICT|INTERRES
    71   34  104 1    
    72   35   36 2    
    73   37   38 2    
    74   37   39 am   BACKBONE|DICT|INTERRES
    75   39   40 1    
    76   39  105 1    
    77   40   41 1    
    78   40   42 1    
    79   40  106 1    
    80   41  107 1    
    81   41  108 1    
    82   41  109 1    
    83   42   43 2    
    84   42   44 am   BACKBONE|DICT|INTERRES
    85   44   45 1    
    86   44  110 1    
    87   45   46 1    
    88   45   47 1    
    89   45  111 1    
    90   46  112 1    
    91   46  113 1    
    92   46  114 1    
    93   47   48 2    
    94   47   49 am   BACKBONE|DICT|INTERRES
    95   49   50 1    
    96   49  115 1    
    97   50   51 1    
    98   50   52 1    
    99   50  116 1    
   100   51  117 1    
   101   51  118 1    
   102   51  119 1    
   103   52   53 2    
   104   52   54 am   BACKBONE|DICT|INTERRES
   105   54   55 1    
   106   54  120 1    
   107   55   56 1    
   108   55   57 1    
   109   55  121 1    
   110   56  122 1    
   111   56  123 1    
   112   56  124 1    
   113   57   58 2    
   114   57   59 am   BACKBONE|DICT|INTERRES
   115   59   60 1    
   116   59  125 1    
   117   60   61 1    
   118   60   62 1    
   119   60  126 1    
   120   61  127 1    
   121   61  128 1    
   122   61  129 1    
   123   62   63 2    
   124   62   64 am   BACKBONE|DICT|INTERRES
   125   64   65 1    
   126   64  130 1    
   127   65   66 1    
   128   65   69 1    
   129   65  131 1    
   130   66   67 am   BACKBONE|DICT|INTERRES
   131   66   68 2    
   132   67  132 1    
   133   67  133 1    
   134   69   70 1    
   135   69  134 1    
   136   69  135 1    
   137   70   71 1    
   138   71  136 1    
   139   71  137 1    
@<TRIPOS>SUBSTRUCTURE
     1 UNK         1 GROUP             0       ****    0 ROOT    
