@<TRIPOS>MOLECULE
3R137
137   139    1
SMALL
USER_CHARGES


@<TRIPOS>ATOM
      1 CA         25.9145   -5.8553   -8.0355 C.3       0 UNK        -0.2020 
      2 C          26.0965   -5.6701   -6.5365 C.2       0 UNK         0.4855 
      3 O          27.0564   -6.1896   -5.9675 O.2       0 UNK        -0.5197 
      4 N          25.1869   -4.9311   -5.8939 N.am      1 UNK        -0.4892 
      5 CA         25.1766   -4.6584   -4.4589 C.3       1 UNK         0.0835 
      6 C6         26.2320   -3.5934   -4.0518 C.3       12 UNK        -0.0855 
      7 S7         26.8783   -3.8771   -2.3712 S.3       12 UNK        -0.2931 
      8 C8         28.4825   -4.6629   -2.7292 C.3       12 UNK         0.0378 
      9 C9         29.5018   -3.6589   -3.2494 C.ar      12 UNK        -0.0802 
     10 C10        29.7990   -3.5907   -4.6144 C.ar      12 UNK        -0.0944 
     11 C11        30.7321   -2.6692   -5.1016 C.ar      12 UNK        -0.0787 
     12 C12        31.3773   -1.8181   -4.1945 C.ar      12 UNK        -0.0862 
     13 C13        31.0991   -1.8837   -2.8260 C.ar      12 UNK        -0.0733 
     14 C14        30.1606   -2.8073   -2.3591 C.ar      12 UNK        -0.0832 
     15 C15        31.8177   -0.9602   -1.8509 C.3       12 UNK         0.0240 
     16 S16        30.7125    0.3183   -1.1703 S.3       12 UNK        -0.2522 
     17 C17        30.2136    1.2148   -2.6796 C.3       12 UNK        -0.0967 
     18 CA         28.7963    0.7869   -3.1662 C.3       5 UNK         0.0660 
     19 N          27.7473    1.0055   -2.1625 N.am      5 UNK        -0.4015 
     20 C          27.3464    2.1713   -1.6379 C.2       4 UNK         0.4946 
     21 O          27.8570    3.2624   -1.9028 O.2       4 UNK        -0.5353 
     22 CA         26.1563    2.0964   -0.6569 C.3       4 UNK         0.0277 
     23 CB         25.8089    3.4642   -0.0380 C.3       4 UNK        -0.1981 
     24 N          24.9524    1.5416   -1.2868 N.am      4 UNK        -0.4209 
     25 C          24.7559    0.2464   -1.5609 C.2       3 UNK         0.4942 
     26 O          25.5781   -0.6373   -1.2997 O.2       3 UNK        -0.5208 
     27 CA         23.4491   -0.1206   -2.2724 C.3       3 UNK         0.0250 
     28 CB         23.4972    0.2849   -3.7581 C.3       3 UNK        -0.1990 
     29 N          23.2742   -1.5637   -2.1635 N.am      3 UNK        -0.4232 
     30 C          22.1236   -2.2414   -2.2363 C.2       2 UNK         0.4993 
     31 O          21.0240   -1.7085   -2.3978 O.2       2 UNK        -0.5286 
     32 CA         22.2379   -3.7761   -2.1112 C.3       2 UNK         0.0209 
     33 CB         20.9724   -4.5212   -2.5896 C.3       2 UNK        -0.1931 
     34 N          23.4478   -4.3006   -2.7655 N.am      2 UNK        -0.4546 
     35 C          23.7556   -4.2213   -4.0691 C.2       1 UNK         0.5154 
     36 O          22.9952   -3.7894   -4.9411 O.2       1 UNK        -0.5181 
     37 C          28.4075    1.3809   -4.5414 C.2       5 UNK         0.5014 
     38 O          27.2418    1.7196   -4.7628 O.2       5 UNK        -0.5248 
     39 N          29.3816    1.4477   -5.4628 N.am      6 UNK        -0.4434 
     40 CA         29.2810    1.9902   -6.8253 C.3       6 UNK         0.0363 
     41 CB         29.0167    3.5098   -6.7968 C.3       6 UNK        -0.1936 
     42 C          28.3018    1.2372   -7.7475 C.2       6 UNK         0.5081 
     43 O          27.8666    1.7963   -8.7543 O.2       6 UNK        -0.5248 
     44 N          28.0137   -0.0363   -7.4414 N.am      7 UNK        -0.4718 
     45 CA         27.1468   -0.9074   -8.2447 C.3       7 UNK         0.0273 
     46 CB         26.8433   -2.1905   -7.4593 C.3       7 UNK        -0.1935 
     47 C          27.7226   -1.2361   -9.6351 C.2       7 UNK         0.5018 
     48 O          26.9535   -1.4487  -10.5724 O.2       7 UNK        -0.5186 
     49 N          29.0574   -1.2305   -9.7454 N.am      8 UNK        -0.4240 
     50 CA         29.8107   -1.3365  -10.9972 C.3       8 UNK         0.0235 
     51 CB         30.8986   -2.4144  -10.8316 C.3       8 UNK        -0.2000 
     52 C          30.4196    0.0202  -11.4066 C.2       8 UNK         0.4941 
     53 O          31.3507    0.0399  -12.2136 O.2       8 UNK        -0.5273 
     54 N          29.9191    1.1266  -10.8305 N.am      9 UNK        -0.4262 
     55 CA         30.3597    2.5219  -10.9671 C.3       9 UNK         0.0264 
     56 CB         30.2102    3.0329  -12.4143 C.3       9 UNK        -0.1955 
     57 C          31.7704    2.7796  -10.4121 C.2       9 UNK         0.5031 
     58 O          31.9171    3.5390   -9.4535 O.2       9 UNK        -0.5390 
     59 N          32.7773    2.1251  -11.0035 N.am      10 UNK        -0.4204 
     60 CA         34.2003    2.2510  -10.6725 C.3       10 UNK         0.0237 
     61 CB         35.0259    1.4674  -11.7057 C.3       10 UNK        -0.1985 
     62 C          34.5585    1.8011   -9.2451 C.2       10 UNK         0.4970 
     63 O          35.5544    2.2772   -8.6991 O.2       10 UNK        -0.4914 
     64 N          33.7444    0.9087   -8.6685 N.am      11 UNK        -0.4285 
     65 CA         33.8530    0.4437   -7.2802 C.3       11 UNK         0.1007 
     66 C          33.3501    1.4578   -6.2071 C.2       11 UNK         0.5703 
     67 N          32.8106    2.6151   -6.5757 N.am      11 UNK        -0.7361 
     68 O          33.4489    1.1858   -5.0135 O.2       11 UNK        -0.4986 
     69 C69        33.2369   -0.9705   -7.1220 C.3       12 UNK        -0.0947 
     70 S70        31.4188   -1.0180   -7.2997 S.3       12 UNK        -0.2240 
     71 C71        31.0464   -2.6607   -6.5991 C.3       12 UNK         0.0194 
     72 H72        26.7822   -5.4679   -8.5689 H         1 UNK         0.0906 
     73 H73        25.8131   -6.9139   -8.2730 H         1 UNK         0.0906 
     74 H74        25.0297   -5.3380   -8.4062 H         1 UNK         0.0906 
     75 H75        24.3803   -4.5490   -6.3755 H         1 UNK         0.3140 
     76 H76        25.3836   -5.6039   -3.9516 H         1 UNK         0.1085 
     77 H77        25.8323   -2.5785   -4.1098 H         1 UNK         0.0836 
     78 H78        27.0686   -3.6026   -4.7479 H         1 UNK         0.0836 
     79 H79        28.8612   -5.1227   -1.8152 H         1 UNK         0.0731 
     80 H80        28.3390   -5.4769   -3.4420 H         1 UNK         0.0731 
     81 H81        29.3028   -4.2647   -5.3003 H         1 UNK         0.1312 
     82 H82        32.1045   -1.1006   -4.5404 H         1 UNK         0.1406 
     83 H83        29.9356   -2.8560   -1.3020 H         1 UNK         0.1631 
     84 H84        32.6724   -0.4776   -2.3283 H         1 UNK         0.0717 
     85 H85        32.2223   -1.5510   -1.0279 H         1 UNK         0.0717 
     86 H86        30.2449    2.2854   -2.4720 H         1 UNK         0.0934 
     87 H87        30.9779    1.0420   -3.4378 H         1 UNK         0.0934 
     88 H88        28.8110   -0.2917   -3.3269 H         1 UNK         0.0739 
     89 H89        27.2088    0.1837   -1.9025 H         1 UNK         0.3093 
     90 H90        26.4581    1.4351    0.1586 H         1 UNK         0.0818 
     91 H91        25.0103    3.3759    0.6988 H         1 UNK         0.0819 
     92 H92        26.6723    3.8915    0.4740 H         1 UNK         0.0819 
     93 H93        25.4908    4.1819   -0.7952 H         1 UNK         0.0819 
     94 H94        24.2491    2.2088   -1.5707 H         1 UNK         0.3041 
     95 H95        22.6223    0.3859   -1.7699 H         1 UNK         0.0784 
     96 H96        23.6211    1.3625   -3.8714 H         1 UNK         0.0793 
     97 H97        24.3277   -0.1946   -4.2785 H         1 UNK         0.0793 
     98 H98        22.5776    0.0101   -4.2751 H         1 UNK         0.0793 
     99 H99        24.1358   -2.0589   -1.9639 H         1 UNK         0.3024 
    100 H100       22.3508   -3.9787   -1.0447 H         1 UNK         0.1171 
    101 H101       20.7408   -4.3045   -3.6327 H         1 UNK         0.0786 
    102 H102       20.1027   -4.2300   -1.9993 H         1 UNK         0.0786 
    103 H103       21.0846   -5.6005   -2.4874 H         1 UNK         0.0786 
    104 H104       24.1579   -4.6574   -2.1390 H         1 UNK         0.2977 
    105 H105       30.2980    1.1054   -5.2106 H         1 UNK         0.3127 
    106 H106       30.2616    1.8464   -7.2788 H         1 UNK         0.0770 
    107 H107       28.0173    3.7398   -6.4262 H         1 UNK         0.0814 
    108 H108       29.1017    3.9413   -7.7950 H         1 UNK         0.0814 
    109 H109       29.7380    4.0257   -6.1635 H         1 UNK         0.0814 
    110 H110       28.4140   -0.4295   -6.6023 H         1 UNK         0.2983 
    111 H111       26.2046   -0.3785   -8.4057 H         1 UNK         0.0947 
    112 H112       26.1875   -2.8468   -8.0322 H         1 UNK         0.0806 
    113 H113       26.3318   -1.9645   -6.5242 H         1 UNK         0.0806 
    114 H114       27.7478   -2.7525   -7.2255 H         1 UNK         0.0806 
    115 H115       29.6013   -1.0551   -8.9105 H         1 UNK         0.3000 
    116 H116       29.1506   -1.6443  -11.8107 H         1 UNK         0.0850 
    117 H117       31.4165   -2.5966  -11.7742 H         1 UNK         0.0810 
    118 H118       31.6518   -2.1236  -10.0991 H         1 UNK         0.0810 
    119 H119       30.4700   -3.3646  -10.5125 H         1 UNK         0.0810 
    120 H120       29.1388    1.0100  -10.1926 H         1 UNK         0.3040 
    121 H121       29.6754    3.1077  -10.3512 H         1 UNK         0.0766 
    122 H122       29.1810    2.9374  -12.7602 H         1 UNK         0.0812 
    123 H123       30.8476    2.4936  -13.1153 H         1 UNK         0.0812 
    124 H124       30.4768    4.0884  -12.4821 H         1 UNK         0.0812 
    125 H125       32.5218    1.4494  -11.7210 H         1 UNK         0.3205 
    126 H126       34.4629    3.3078  -10.7525 H         1 UNK         0.0754 
    127 H127       36.0943    1.5575  -11.5039 H         1 UNK         0.0769 
    128 H128       34.8561    1.8419  -12.7154 H         1 UNK         0.0769 
    129 H129       34.7794    0.4047  -11.6961 H         1 UNK         0.0769 
    130 H130       32.9457    0.5761   -9.1857 H         1 UNK         0.2981 
    131 H131       34.9186    0.3308   -7.0721 H         1 UNK         0.0541 
    132 H132       32.5155    3.2641   -5.8650 H         1 UNK         0.3459 
    133 H133       32.7089    2.8599   -7.5525 H         1 UNK         0.3459 
    134 H134       33.5287   -1.3984   -6.1631 H         1 UNK         0.0612 
    135 H135       33.6623   -1.6404   -7.8710 H         1 UNK         0.0612 
    136 H136       31.8794   -3.3379   -6.7917 H         1 UNK         0.0624 
    137 H137       30.1977   -3.0623   -7.1543 H         1 UNK         0.0624 
@<TRIPOS>BOND
     1    1    2 1    
     2    1   72 1    
     3    1   73 1    
     4    1   74 1    
     5    2    3 2    
     6    2    4 am   BACKBONE|DICT|INTERRES
     7    4    5 1    
     8    4   75 1    
     9    5    6 1    
    10    5   35 1    
    11    5   76 1    
    12    6    7 1    
    13    6   77 1    
    14    6   78 1    
    15    7    8 1    
    16    8    9 1    
    17    8   79 1    
    18    8   80 1    
    19    9   10 ar   
    20    9   14 ar   
    21   10   11 ar   
    22   10   81 1    
    23   11   12 ar   
    24   11   71 1    
    25   12   13 ar   
    26   12   82 1    
    27   13   14 ar   
    28   13   15 1    
    29   14   83 1    
    30   15   16 1    
    31   15   84 1    
    32   15   85 1    
    33   16   17 1    
    34   17   18 1    
    35   17   86 1    
    36   17   87 1    
    37   18   19 1    
    38   18   37 1    
    39   18   88 1    
    40   19   20 am   BACKBONE|DICT|INTERRES
    41   19   89 1    
    42   20   21 2    
    43   20   22 1    
    44   22   23 1    
    45   22   24 1    
    46   22   90 1    
    47   23   91 1    
    48   23   92 1    
    49   23   93 1    
    50   24   25 am   BACKBONE|DICT|INTERRES
    51   24   94 1    
    52   25   26 2    
    53   25   27 1    
    54   27   28 1    
    55   27   29 1    
    56   27   95 1    
    57   28   96 1    
    58   28   97 1    
    59   28   98 1    
    60   29   30 am   BACKBONE|DICT|INTERRES
    61   29   99 1    
    62   30   31 2    
    63   30   32 1    
    64   32   33 1    
    65   32   34 1    
    66   32  100 1    
    67   33  101 1    
    68   33  102 1    
    69   33  103 1    
    70   34   35 am   BACKBONE|DICT|INTERRES
    71   34  104 1    
    72   35   36 2    
    73   37   38 2    
    74   37   39 am   BACKBONE|DICT|INTERRES
    75   39   40 1    
    76   39  105 1    
    77   40   41 1    
    78   40   42 1    
    79   40  106 1    
    80   41  107 1    
    81   41  108 1    
    82   41  109 1    
    83   42   43 2    
    84   42   44 am   BACKBONE|DICT|INTERRES
    85   44   45 1    
    86   44  110 1    
    87   45   46 1    
    88   45   47 1    
    89   45  111 1    
    90   46  112 1    
    91   46  113 1    
    92   46  114 1    
    93   47   48 2    
    94   47   49 am   BACKBONE|DICT|INTERRES
    95   49   50 1    
    96   49  115 1    
    97   50   51 1    
    98   50   52 1    
    99   50  116 1    
   100   51  117 1    
   101   51  118 1    
   102   51  119 1    
   103   52   53 2    
   104   52   54 am   BACKBONE|DICT|INTERRES
   105   54   55 1    
   106   54  120 1    
   107   55   56 1    
   108   55   57 1    
   109   55  121 1    
   110   56  122 1    
   111   56  123 1    
   112   56  124 1    
   113   57   58 2    
   114   57   59 am   BACKBONE|DICT|INTERRES
   115   59   60 1    
   116   59  125 1    
   117   60   61 1    
   118   60   62 1    
   119   60  126 1    
   120   61  127 1    
   121   61  128 1    
   122   61  129 1    
   123   62   63 2    
   124   62   64 am   BACKBONE|DICT|INTERRES
   125   64   65 1    
   126   64  130 1    
   127   65   66 1    
   128   65   69 1    
   129   65  131 1    
   130   66   67 am   BACKBONE|DICT|INTERRES
   131   66   68 2    
   132   67  132 1    
   133   67  133 1    
   134   69   70 1    
   135   69  134 1    
   136   69  135 1    
   137   70   71 1    
   138   71  136 1    
   139   71  137 1    
@<TRIPOS>SUBSTRUCTURE
     1 UNK         1 GROUP             0       ****    0 ROOT    
