@<TRIPOS>MOLECULE
3R137
137   139    1
SMALL
USER_CHARGES


@<TRIPOS>ATOM
      1 CA         28.9251   -5.1255   -3.3668 C.3       0 UNK        -0.2020 
      2 C          28.0588   -4.4120   -2.3444 C.2       0 UNK         0.4855 
      3 O          26.9525   -4.8696   -2.0525 O.2       0 UNK        -0.5197 
      4 N          28.5626   -3.3023   -1.7916 N.am      1 UNK        -0.4892 
      5 CA         27.9337   -2.4928   -0.7429 C.3       1 UNK         0.0835 
      6 C6         28.9344   -1.4802   -0.1267 C.3       12 UNK        -0.0855 
      7 S7         30.4530   -2.2871    0.4931 S.3       12 UNK        -0.2931 
      8 C8         31.7500   -1.0951    0.0244 C.3       12 UNK         0.0378 
      9 C9         31.9297   -0.9719   -1.4842 C.ar      12 UNK        -0.0802 
     10 C10        32.5998   -1.9678   -2.2016 C.ar      12 UNK        -0.0944 
     11 C11        32.8119   -1.8311   -3.5773 C.ar      12 UNK        -0.0787 
     12 C12        32.3277   -0.6973   -4.2380 C.ar      12 UNK        -0.0862 
     13 C13        31.6617    0.3110   -3.5347 C.ar      12 UNK        -0.0733 
     14 C14        31.4745    0.1678   -2.1545 C.ar      12 UNK        -0.0832 
     15 C15        31.2181    1.5698   -4.2803 C.3       12 UNK         0.0240 
     16 S16        29.6822    2.3319   -3.6529 S.3       12 UNK        -0.2522 
     17 C17        28.4558    1.0632   -4.1014 C.3       12 UNK        -0.0967 
     18 CA         27.9157    1.2556   -5.5392 C.3       5 UNK         0.0660 
     19 N          27.6308   -0.0297   -6.1787 N.am      5 UNK        -0.4015 
     20 C          27.3206   -0.2141   -7.4660 C.2       4 UNK         0.4946 
     21 O          27.1675    0.7095   -8.2669 O.2       4 UNK        -0.5353 
     22 CA         27.1160   -1.6650   -7.9369 C.3       4 UNK         0.0277 
     23 CB         28.4692   -2.3841   -8.1002 C.3       4 UNK        -0.1981 
     24 N          26.1850   -2.4527   -7.1106 N.am      4 UNK        -0.4209 
     25 C          26.3178   -2.8330   -5.8314 C.2       3 UNK         0.4942 
     26 O          27.2935   -2.5619   -5.1270 O.2       3 UNK        -0.5208 
     27 CA         25.1708   -3.6698   -5.2477 C.3       3 UNK         0.0250 
     28 CB         25.4594   -5.1717   -5.4006 C.3       3 UNK        -0.1990 
     29 N          24.9800   -3.3562   -3.8323 N.am      3 UNK        -0.4232 
     30 C          24.2966   -2.2938   -3.3833 C.2       2 UNK         0.4993 
     31 O          23.6975   -1.5080   -4.1179 O.2       2 UNK        -0.5286 
     32 CA         24.2782   -2.0627   -1.8625 C.3       2 UNK         0.0209 
     33 CB         23.0961   -2.8035   -1.2169 C.3       2 UNK        -0.1931 
     34 N          25.5265   -2.4909   -1.2284 N.am      2 UNK        -0.4546 
     35 C          26.6667   -1.7908   -1.2763 C.2       1 UNK         0.5154 
     36 O          26.7423   -0.6545   -1.7446 O.2       1 UNK        -0.5181 
     37 C          26.7223    2.2332   -5.5863 C.2       5 UNK         0.5014 
     38 O          26.9358    3.4404   -5.6972 O.2       5 UNK        -0.5248 
     39 N          25.4888    1.7037   -5.5831 N.am      6 UNK        -0.4434 
     40 CA         24.2508    2.4661   -5.7836 C.3       6 UNK         0.0363 
     41 CB         23.0447    1.5497   -5.5267 C.3       6 UNK        -0.1936 
     42 C          24.1401    3.1250   -7.1742 C.2       6 UNK         0.5081 
     43 O          23.4379    4.1273   -7.3071 O.2       6 UNK        -0.5248 
     44 N          24.8442    2.5737   -8.1724 N.am      7 UNK        -0.4718 
     45 CA         24.9834    3.1299   -9.5207 C.3       7 UNK         0.0273 
     46 CB         24.8080    1.9886  -10.5390 C.3       7 UNK        -0.1935 
     47 C          26.3425    3.8334   -9.7131 C.2       7 UNK         0.5018 
     48 O          26.6555    4.2253  -10.8380 O.2       7 UNK        -0.5186 
     49 N          27.1298    3.9623   -8.6318 N.am      8 UNK        -0.4240 
     50 CA         28.4994    4.4869   -8.5681 C.3       8 UNK         0.0235 
     51 CB         28.5317    5.9904   -8.9176 C.3       8 UNK        -0.2000 
     52 C          29.5208    3.6598   -9.3769 C.2       8 UNK         0.4941 
     53 O          30.5373    4.2082   -9.8085 O.2       8 UNK        -0.5273 
     54 N          29.2495    2.3614   -9.5634 N.am      9 UNK        -0.4262 
     55 CA         30.1334    1.4183  -10.2450 C.3       9 UNK         0.0264 
     56 CB         29.2721    0.4292  -11.0490 C.3       9 UNK        -0.1955 
     57 C          31.0089    0.6736   -9.2267 C.2       9 UNK         0.5031 
     58 O          30.6534    0.5837   -8.0485 O.2       9 UNK        -0.5390 
     59 N          32.1284    0.1199   -9.7087 N.am      10 UNK        -0.4204 
     60 CA         32.9900   -0.7803   -8.9416 C.3       10 UNK         0.0237 
     61 CB         34.3478   -0.9205   -9.6488 C.3       10 UNK        -0.1985 
     62 C          32.3141   -2.1512   -8.7832 C.2       10 UNK         0.4970 
     63 O          31.7668   -2.6723   -9.7582 O.2       10 UNK        -0.4914 
     64 N          32.3617   -2.6989   -7.5656 N.am      11 UNK        -0.4285 
     65 CA         31.7750   -3.9972   -7.2174 C.3       11 UNK         0.1007 
     66 C          32.5931   -5.2118   -7.7434 C.2       11 UNK         0.5703 
     67 N          31.9929   -6.3944   -7.7712 N.am      11 UNK        -0.7361 
     68 O          33.7624   -5.1002   -8.1095 O.2       11 UNK        -0.4986 
     69 C69        31.4222   -4.0626   -5.7051 C.3       12 UNK        -0.0947 
     70 S70        32.7850   -4.4574   -4.5526 S.3       12 UNK        -0.2240 
     71 C71        33.6375   -2.8650   -4.3318 C.3       12 UNK         0.0194 
     72 H72        28.7961   -6.2047   -3.2893 H         1 UNK         0.0906 
     73 H73        28.6440   -4.8169   -4.3724 H         1 UNK         0.0906 
     74 H74        29.9806   -4.9017   -3.2149 H         1 UNK         0.0906 
     75 H75        29.4713   -2.9737   -2.0868 H         1 UNK         0.3140 
     76 H76        27.6241   -3.1709    0.0556 H         1 UNK         0.1085 
     77 H77        28.4705   -0.9473    0.7055 H         1 UNK         0.0836 
     78 H78        29.2005   -0.7182   -0.8598 H         1 UNK         0.0836 
     79 H79        32.6934   -1.4130    0.4707 H         1 UNK         0.0731 
     80 H80        31.5196   -0.1251    0.4682 H         1 UNK         0.0731 
     81 H81        32.9786   -2.8389   -1.6842 H         1 UNK         0.1312 
     82 H82        32.4993   -0.5769   -5.2984 H         1 UNK         0.1406 
     83 H83        30.9838    0.9523   -1.5949 H         1 UNK         0.1631 
     84 H84        31.0857    1.3547   -5.3423 H         1 UNK         0.0717 
     85 H85        32.0195    2.3065   -4.2139 H         1 UNK         0.0717 
     86 H86        27.6489    1.0872   -3.3679 H         1 UNK         0.0934 
     87 H87        28.9204    0.0823   -3.9844 H         1 UNK         0.0934 
     88 H88        28.7045    1.7025   -6.1492 H         1 UNK         0.0739 
     89 H89        27.6923   -0.8652   -5.5982 H         1 UNK         0.3093 
     90 H90        26.6581   -1.6069   -8.9258 H         1 UNK         0.0818 
     91 H91        29.1166   -1.8471   -8.7936 H         1 UNK         0.0819 
     92 H92        29.0090   -2.4588   -7.1561 H         1 UNK         0.0819 
     93 H93        28.3394   -3.3918   -8.4943 H         1 UNK         0.0819 
     94 H94        25.3325   -2.7199   -7.5843 H         1 UNK         0.3041 
     95 H95        24.2504   -3.4397   -5.7892 H         1 UNK         0.0784 
     96 H96        25.6049   -5.4392   -6.4480 H         1 UNK         0.0793 
     97 H97        26.3572   -5.4706   -4.8600 H         1 UNK         0.0793 
     98 H98        24.6308   -5.7726   -5.0254 H         1 UNK         0.0793 
     99 H99        25.5157   -3.9078   -3.1703 H         1 UNK         0.3024 
    100 H100       24.1448   -0.9913   -1.6940 H         1 UNK         0.1171 
    101 H101       23.0349   -2.5968   -0.1482 H         1 UNK         0.0786 
    102 H102       22.1505   -2.4893   -1.6614 H         1 UNK         0.0786 
    103 H103       23.1747   -3.8837   -1.3467 H         1 UNK         0.0786 
    104 H104       25.5704   -3.4465   -0.8980 H         1 UNK         0.2977 
    105 H105       25.3932    0.7031   -5.4815 H         1 UNK         0.3127 
    106 H106       24.2331    3.2694   -5.0440 H         1 UNK         0.0770 
    107 H107       23.0335    0.6952   -6.2045 H         1 UNK         0.0814 
    108 H108       22.1064    2.0888   -5.6648 H         1 UNK         0.0814 
    109 H109       23.0480    1.1677   -4.5057 H         1 UNK         0.0814 
    110 H110       25.4295    1.7680   -7.9767 H         1 UNK         0.2983 
    111 H111       24.2072    3.8755   -9.7060 H         1 UNK         0.0947 
    112 H112       25.5950    1.2391  -10.4450 H         1 UNK         0.0806 
    113 H113       24.8390    2.3661  -11.5619 H         1 UNK         0.0806 
    114 H114       23.8491    1.4865  -10.4105 H         1 UNK         0.0806 
    115 H115       26.7675    3.6295   -7.7451 H         1 UNK         0.3000 
    116 H116       28.8058    4.3892   -7.5256 H         1 UNK         0.0850 
    117 H117       29.5154    6.4177   -8.7192 H         1 UNK         0.0810 
    118 H118       27.8116    6.5514   -8.3221 H         1 UNK         0.0810 
    119 H119       28.3084    6.1668   -9.9701 H         1 UNK         0.0810 
    120 H120       28.4350    1.9533   -9.1122 H         1 UNK         0.3040 
    121 H121       30.7849    1.9519  -10.9406 H         1 UNK         0.0766 
    122 H122       28.6722    0.9483  -11.7968 H         1 UNK         0.0812 
    123 H123       28.5901   -0.1296  -10.4089 H         1 UNK         0.0812 
    124 H124       29.8911   -0.2971  -11.5772 H         1 UNK         0.0812 
    125 H125       32.3286    0.2033  -10.6949 H         1 UNK         0.3205 
    126 H126       33.1577   -0.3423   -7.9550 H         1 UNK         0.0754 
    127 H127       35.0152   -1.5733   -9.0843 H         1 UNK         0.0769 
    128 H128       34.8459    0.0443   -9.7474 H         1 UNK         0.0769 
    129 H129       34.2424   -1.3484  -10.6469 H         1 UNK         0.0769 
    130 H130       32.8742   -2.2360   -6.8334 H         1 UNK         0.2981 
    131 H131       30.8233   -4.0470   -7.7496 H         1 UNK         0.0541 
    132 H132       32.5083   -7.1955   -8.1008 H         1 UNK         0.3459 
    133 H133       31.0394   -6.5051   -7.4646 H         1 UNK         0.3459 
    134 H134       30.9286   -3.1443   -5.3828 H         1 UNK         0.0612 
    135 H135       30.6787   -4.8475   -5.5714 H         1 UNK         0.0612 
    136 H136       33.9566   -2.4836   -5.3015 H         1 UNK         0.0624 
    137 H137       34.5562   -3.0491   -3.7732 H         1 UNK         0.0624 
@<TRIPOS>BOND
     1    1    2 1    
     2    1   72 1    
     3    1   73 1    
     4    1   74 1    
     5    2    3 2    
     6    2    4 am   BACKBONE|DICT|INTERRES
     7    4    5 1    
     8    4   75 1    
     9    5    6 1    
    10    5   35 1    
    11    5   76 1    
    12    6    7 1    
    13    6   77 1    
    14    6   78 1    
    15    7    8 1    
    16    8    9 1    
    17    8   79 1    
    18    8   80 1    
    19    9   10 ar   
    20    9   14 ar   
    21   10   11 ar   
    22   10   81 1    
    23   11   12 ar   
    24   11   71 1    
    25   12   13 ar   
    26   12   82 1    
    27   13   14 ar   
    28   13   15 1    
    29   14   83 1    
    30   15   16 1    
    31   15   84 1    
    32   15   85 1    
    33   16   17 1    
    34   17   18 1    
    35   17   86 1    
    36   17   87 1    
    37   18   19 1    
    38   18   37 1    
    39   18   88 1    
    40   19   20 am   BACKBONE|DICT|INTERRES
    41   19   89 1    
    42   20   21 2    
    43   20   22 1    
    44   22   23 1    
    45   22   24 1    
    46   22   90 1    
    47   23   91 1    
    48   23   92 1    
    49   23   93 1    
    50   24   25 am   BACKBONE|DICT|INTERRES
    51   24   94 1    
    52   25   26 2    
    53   25   27 1    
    54   27   28 1    
    55   27   29 1    
    56   27   95 1    
    57   28   96 1    
    58   28   97 1    
    59   28   98 1    
    60   29   30 am   BACKBONE|DICT|INTERRES
    61   29   99 1    
    62   30   31 2    
    63   30   32 1    
    64   32   33 1    
    65   32   34 1    
    66   32  100 1    
    67   33  101 1    
    68   33  102 1    
    69   33  103 1    
    70   34   35 am   BACKBONE|DICT|INTERRES
    71   34  104 1    
    72   35   36 2    
    73   37   38 2    
    74   37   39 am   BACKBONE|DICT|INTERRES
    75   39   40 1    
    76   39  105 1    
    77   40   41 1    
    78   40   42 1    
    79   40  106 1    
    80   41  107 1    
    81   41  108 1    
    82   41  109 1    
    83   42   43 2    
    84   42   44 am   BACKBONE|DICT|INTERRES
    85   44   45 1    
    86   44  110 1    
    87   45   46 1    
    88   45   47 1    
    89   45  111 1    
    90   46  112 1    
    91   46  113 1    
    92   46  114 1    
    93   47   48 2    
    94   47   49 am   BACKBONE|DICT|INTERRES
    95   49   50 1    
    96   49  115 1    
    97   50   51 1    
    98   50   52 1    
    99   50  116 1    
   100   51  117 1    
   101   51  118 1    
   102   51  119 1    
   103   52   53 2    
   104   52   54 am   BACKBONE|DICT|INTERRES
   105   54   55 1    
   106   54  120 1    
   107   55   56 1    
   108   55   57 1    
   109   55  121 1    
   110   56  122 1    
   111   56  123 1    
   112   56  124 1    
   113   57   58 2    
   114   57   59 am   BACKBONE|DICT|INTERRES
   115   59   60 1    
   116   59  125 1    
   117   60   61 1    
   118   60   62 1    
   119   60  126 1    
   120   61  127 1    
   121   61  128 1    
   122   61  129 1    
   123   62   63 2    
   124   62   64 am   BACKBONE|DICT|INTERRES
   125   64   65 1    
   126   64  130 1    
   127   65   66 1    
   128   65   69 1    
   129   65  131 1    
   130   66   67 am   BACKBONE|DICT|INTERRES
   131   66   68 2    
   132   67  132 1    
   133   67  133 1    
   134   69   70 1    
   135   69  134 1    
   136   69  135 1    
   137   70   71 1    
   138   71  136 1    
   139   71  137 1    
@<TRIPOS>SUBSTRUCTURE
     1 UNK         1 GROUP             0       ****    0 ROOT    
