@<TRIPOS>MOLECULE
3R137
137   139    1
SMALL
USER_CHARGES


@<TRIPOS>ATOM
      1 CA         28.4284   -7.1315   -5.2398 C.3       0 UNK        -0.2020 
      2 C          28.2856   -6.7140   -3.7836 C.2       0 UNK         0.4855 
      3 O          28.1464   -7.5696   -2.9093 O.2       0 UNK        -0.5197 
      4 N          28.3169   -5.4059   -3.5177 N.am      1 UNK        -0.4892 
      5 CA         28.1799   -4.7974   -2.1981 C.3       1 UNK         0.0835 
      6 C6         29.5308   -4.8104   -1.4327 C.3       12 UNK        -0.0855 
      7 S7         29.4499   -4.0931    0.2492 S.3       12 UNK        -0.2931 
      8 C8         30.9805   -3.0955    0.3369 C.3       12 UNK         0.0378 
      9 C9         31.1072   -2.1021   -0.8119 C.ar      12 UNK        -0.0802 
     10 C10        32.2000   -2.1672   -1.6812 C.ar      12 UNK        -0.0944 
     11 C11        32.2799   -1.3169   -2.7879 C.ar      12 UNK        -0.0787 
     12 C12        31.2593   -0.3891   -3.0163 C.ar      12 UNK        -0.0862 
     13 C13        30.1749   -0.2899   -2.1348 C.ar      12 UNK        -0.0733 
     14 C14        30.1140   -1.1444   -1.0303 C.ar      12 UNK        -0.0832 
     15 C15        29.0085    0.6571   -2.3919 C.3       12 UNK         0.0240 
     16 S16        29.4495    2.2184   -3.2178 S.3       12 UNK        -0.2522 
     17 C17        27.7950    2.7846   -3.7385 C.3       12 UNK        -0.0967 
     18 CA         27.5068    2.4139   -5.2126 C.3       5 UNK         0.0660 
     19 N          27.4636    0.9659   -5.4376 N.am      5 UNK        -0.4015 
     20 C          27.6097    0.3911   -6.6381 C.2       4 UNK         0.4946 
     21 O          27.7831    1.0223   -7.6768 O.2       4 UNK        -0.5353 
     22 CA         27.4968   -1.1383   -6.7079 C.3       4 UNK         0.0277 
     23 CB         28.8582   -1.7845   -6.4182 C.3       4 UNK        -0.1981 
     24 N          26.4811   -1.6703   -5.7974 N.am      4 UNK        -0.4209 
     25 C          25.1673   -1.4237   -5.9238 C.2       3 UNK         0.4942 
     26 O          24.6896   -0.7609   -6.8443 O.2       3 UNK        -0.5208 
     27 CA         24.2235   -1.9587   -4.8311 C.3       3 UNK         0.0250 
     28 CB         23.6062   -3.2959   -5.2696 C.3       3 UNK        -0.1990 
     29 N          24.8505   -2.1248   -3.5175 N.am      3 UNK        -0.4232 
     30 C          25.4453   -1.1548   -2.8087 C.2       2 UNK         0.4993 
     31 O          25.5212    0.0191   -3.1776 O.2       2 UNK        -0.5286 
     32 CA         26.1270   -1.5831   -1.4961 C.3       2 UNK         0.0209 
     33 CB         25.1306   -1.5041   -0.3290 C.3       2 UNK        -0.1931 
     34 N          26.7508   -2.9163   -1.5138 N.am      2 UNK        -0.4546 
     35 C          27.6068   -3.3877   -2.4348 C.2       1 UNK         0.5154 
     36 O          27.9212   -2.7731   -3.4585 O.2       1 UNK        -0.5181 
     37 C          26.2242    3.0934   -5.7258 C.2       5 UNK         0.5014 
     38 O          26.3064    4.2077   -6.2428 O.2       5 UNK        -0.5248 
     39 N          25.0771    2.4022   -5.6308 N.am      6 UNK        -0.4434 
     40 CA         23.8077    2.8286   -6.2289 C.3       6 UNK         0.0363 
     41 CB         22.6619    1.9505   -5.7014 C.3       6 UNK        -0.1936 
     42 C          23.8517    2.8123   -7.7688 C.2       6 UNK         0.5081 
     43 O          23.3144    3.7217   -8.4006 O.2       6 UNK        -0.5248 
     44 N          24.5208    1.8020   -8.3419 N.am      7 UNK        -0.4718 
     45 CA         24.7835    1.6736   -9.7794 C.3       7 UNK         0.0273 
     46 CB         25.1354    0.2079  -10.0852 C.3       7 UNK        -0.1935 
     47 C          25.8976    2.6066  -10.2978 C.2       7 UNK         0.5018 
     48 O          26.0375    2.7411  -11.5141 O.2       7 UNK        -0.5186 
     49 N          26.6722    3.2076   -9.3816 N.am      8 UNK        -0.4240 
     50 CA         27.8701    4.0272   -9.6059 C.3       8 UNK         0.0235 
     51 CB         27.5215    5.3340  -10.3501 C.3       8 UNK        -0.2000 
     52 C          29.0187    3.2347  -10.2655 C.2       8 UNK         0.4941 
     53 O          29.7146    3.7604  -11.1372 O.2       8 UNK        -0.5273 
     54 N          29.1925    1.9815   -9.8320 N.am      9 UNK        -0.4262 
     55 CA         30.2395    1.0581  -10.2591 C.3       9 UNK         0.0264 
     56 CB         29.6031   -0.3288  -10.4598 C.3       9 UNK        -0.1955 
     57 C          31.3532    0.9889   -9.2019 C.2       9 UNK         0.5031 
     58 O          31.1434    1.3623   -8.0456 O.2       9 UNK        -0.5390 
     59 N          32.5176    0.4718   -9.6139 N.am      10 UNK        -0.4204 
     60 CA         33.7073    0.3020   -8.7696 C.3       10 UNK         0.0237 
     61 CB         34.9490    0.2510   -9.6780 C.3       10 UNK        -0.1985 
     62 C          33.6624   -0.9321   -7.8431 C.2       10 UNK         0.4970 
     63 O          34.5899   -1.1053   -7.0546 O.2       10 UNK        -0.4914 
     64 N          32.6259   -1.7703   -7.9819 N.am      11 UNK        -0.4285 
     65 CA         32.3761   -3.0393   -7.2720 C.3       11 UNK         0.1007 
     66 C          33.3128   -4.2291   -7.6466 C.2       11 UNK         0.5703 
     67 N          34.2436   -4.0766   -8.5811 N.am      11 UNK        -0.7361 
     68 O          33.1549   -5.3291   -7.1222 O.2       11 UNK        -0.4986 
     69 C69        32.0976   -2.8684   -5.7436 C.3       12 UNK        -0.0947 
     70 S70        33.5308   -2.9998   -4.6148 S.3       12 UNK        -0.2240 
     71 C71        33.4682   -1.4056   -3.7371 C.3       12 UNK         0.0194 
     72 H72        28.5476   -6.2732   -5.9009 H         1 UNK         0.0906 
     73 H73        29.2991   -7.7754   -5.3614 H         1 UNK         0.0906 
     74 H74        27.5467   -7.6863   -5.5596 H         1 UNK         0.0906 
     75 H75        28.3979   -4.7221   -4.2612 H         1 UNK         0.3140 
     76 H76        27.4439   -5.3681   -1.6270 H         1 UNK         0.1085 
     77 H77        30.2941   -4.3076   -2.0275 H         1 UNK         0.0836 
     78 H78        29.8787   -5.8390   -1.3265 H         1 UNK         0.0836 
     79 H79        31.8358   -3.7728    0.3589 H         1 UNK         0.0731 
     80 H80        30.9955   -2.5510    1.2820 H         1 UNK         0.0731 
     81 H81        32.9782   -2.9003   -1.5178 H         1 UNK         0.1312 
     82 H82        31.3070    0.2474   -3.8889 H         1 UNK         0.1406 
     83 H83        29.2669   -1.1018   -0.3594 H         1 UNK         0.1631 
     84 H84        28.5080    0.9061   -1.4550 H         1 UNK         0.0717 
     85 H85        28.2890    0.1165   -3.0038 H         1 UNK         0.0717 
     86 H86        27.0296    2.3819   -3.0719 H         1 UNK         0.0934 
     87 H87        27.7687    3.8684   -3.6077 H         1 UNK         0.0934 
     88 H88        28.3274    2.8128   -5.8144 H         1 UNK         0.0739 
     89 H89        27.2477    0.3869   -4.6379 H         1 UNK         0.3093 
     90 H90        27.2047   -1.4031   -7.7263 H         1 UNK         0.0818 
     91 H91        28.8160   -2.8689   -6.5183 H         1 UNK         0.0819 
     92 H92        29.6149   -1.4199   -7.1139 H         1 UNK         0.0819 
     93 H93        29.2068   -1.5518   -5.4113 H         1 UNK         0.0819 
     94 H94        26.8184   -2.1844   -4.9883 H         1 UNK         0.3041 
     95 H95        23.4183   -1.2304   -4.7162 H         1 UNK         0.0784 
     96 H96        23.1089   -3.1977   -6.2359 H         1 UNK         0.0793 
     97 H97        24.3620   -4.0761   -5.3700 H         1 UNK         0.0793 
     98 H98        22.8573   -3.6414   -4.5567 H         1 UNK         0.0793 
     99 H99        24.8542   -3.0579   -3.1322 H         1 UNK         0.3024 
    100 H100       26.9201   -0.8637   -1.2996 H         1 UNK         0.1171 
    101 H101       25.6244   -1.6760    0.6277 H         1 UNK         0.0786 
    102 H102       24.6660   -0.5181   -0.2772 H         1 UNK         0.0786 
    103 H103       24.3293   -2.2371   -0.4307 H         1 UNK         0.0786 
    104 H104       26.5633   -3.4968   -0.7083 H         1 UNK         0.2977 
    105 H105       25.0907    1.4989   -5.1759 H         1 UNK         0.3127 
    106 H106       23.6184    3.8571   -5.9136 H         1 UNK         0.0770 
    107 H107       22.7737    0.9095   -6.0042 H         1 UNK         0.0814 
    108 H108       21.7013    2.2969   -6.0850 H         1 UNK         0.0814 
    109 H109       22.6057    1.9802   -4.6131 H         1 UNK         0.0814 
    110 H110       24.8591    1.0474   -7.7521 H         1 UNK         0.2983 
    111 H111       23.8698    1.9276  -10.3209 H         1 UNK         0.0947 
    112 H112       25.2815    0.0544  -11.1552 H         1 UNK         0.0806 
    113 H113       24.3410   -0.4670   -9.7660 H         1 UNK         0.0806 
    114 H114       26.0548   -0.0969   -9.5842 H         1 UNK         0.0806 
    115 H115       26.4789    2.9862   -8.4140 H         1 UNK         0.3000 
    116 H116       28.2306    4.3030   -8.6137 H         1 UNK         0.0850 
    117 H117       26.7180    5.8730   -9.8480 H         1 UNK         0.0810 
    118 H118       27.2098    5.1461  -11.3778 H         1 UNK         0.0810 
    119 H119       28.3831    6.0014  -10.3901 H         1 UNK         0.0810 
    120 H120       28.6250    1.6585   -9.0455 H         1 UNK         0.3040 
    121 H121       30.6717    1.3911  -11.2051 H         1 UNK         0.0766 
    122 H122       30.3326   -1.0548  -10.8202 H         1 UNK         0.0812 
    123 H123       28.7996   -0.2889  -11.1958 H         1 UNK         0.0812 
    124 H124       29.1810   -0.7175   -9.5322 H         1 UNK         0.0812 
    125 H125       32.6072    0.1862  -10.5793 H         1 UNK         0.3205 
    126 H126       33.7992    1.1777   -8.1233 H         1 UNK         0.0754 
    127 H127       35.8648    0.1770   -9.0896 H         1 UNK         0.0769 
    128 H128       35.0331    1.1524  -10.2856 H         1 UNK         0.0769 
    129 H129       34.9242   -0.6071  -10.3509 H         1 UNK         0.0769 
    130 H130       31.9433   -1.5382   -8.6863 H         1 UNK         0.2981 
    131 H131       31.4215   -3.3513   -7.6971 H         1 UNK         0.0541 
    132 H132       34.8277   -4.8601   -8.8270 H         1 UNK         0.3459 
    133 H133       34.3864   -3.1818   -9.0190 H         1 UNK         0.3459 
    134 H134       31.5912   -1.9199   -5.5671 H         1 UNK         0.0612 
    135 H135       31.3882   -3.6338   -5.4249 H         1 UNK         0.0612 
    136 H136       33.4522   -0.5948   -4.4671 H         1 UNK         0.0624 
    137 H137       34.3888   -1.2853   -3.1648 H         1 UNK         0.0624 
@<TRIPOS>BOND
     1    1    2 1    
     2    1   72 1    
     3    1   73 1    
     4    1   74 1    
     5    2    3 2    
     6    2    4 am   BACKBONE|DICT|INTERRES
     7    4    5 1    
     8    4   75 1    
     9    5    6 1    
    10    5   35 1    
    11    5   76 1    
    12    6    7 1    
    13    6   77 1    
    14    6   78 1    
    15    7    8 1    
    16    8    9 1    
    17    8   79 1    
    18    8   80 1    
    19    9   10 ar   
    20    9   14 ar   
    21   10   11 ar   
    22   10   81 1    
    23   11   12 ar   
    24   11   71 1    
    25   12   13 ar   
    26   12   82 1    
    27   13   14 ar   
    28   13   15 1    
    29   14   83 1    
    30   15   16 1    
    31   15   84 1    
    32   15   85 1    
    33   16   17 1    
    34   17   18 1    
    35   17   86 1    
    36   17   87 1    
    37   18   19 1    
    38   18   37 1    
    39   18   88 1    
    40   19   20 am   BACKBONE|DICT|INTERRES
    41   19   89 1    
    42   20   21 2    
    43   20   22 1    
    44   22   23 1    
    45   22   24 1    
    46   22   90 1    
    47   23   91 1    
    48   23   92 1    
    49   23   93 1    
    50   24   25 am   BACKBONE|DICT|INTERRES
    51   24   94 1    
    52   25   26 2    
    53   25   27 1    
    54   27   28 1    
    55   27   29 1    
    56   27   95 1    
    57   28   96 1    
    58   28   97 1    
    59   28   98 1    
    60   29   30 am   BACKBONE|DICT|INTERRES
    61   29   99 1    
    62   30   31 2    
    63   30   32 1    
    64   32   33 1    
    65   32   34 1    
    66   32  100 1    
    67   33  101 1    
    68   33  102 1    
    69   33  103 1    
    70   34   35 am   BACKBONE|DICT|INTERRES
    71   34  104 1    
    72   35   36 2    
    73   37   38 2    
    74   37   39 am   BACKBONE|DICT|INTERRES
    75   39   40 1    
    76   39  105 1    
    77   40   41 1    
    78   40   42 1    
    79   40  106 1    
    80   41  107 1    
    81   41  108 1    
    82   41  109 1    
    83   42   43 2    
    84   42   44 am   BACKBONE|DICT|INTERRES
    85   44   45 1    
    86   44  110 1    
    87   45   46 1    
    88   45   47 1    
    89   45  111 1    
    90   46  112 1    
    91   46  113 1    
    92   46  114 1    
    93   47   48 2    
    94   47   49 am   BACKBONE|DICT|INTERRES
    95   49   50 1    
    96   49  115 1    
    97   50   51 1    
    98   50   52 1    
    99   50  116 1    
   100   51  117 1    
   101   51  118 1    
   102   51  119 1    
   103   52   53 2    
   104   52   54 am   BACKBONE|DICT|INTERRES
   105   54   55 1    
   106   54  120 1    
   107   55   56 1    
   108   55   57 1    
   109   55  121 1    
   110   56  122 1    
   111   56  123 1    
   112   56  124 1    
   113   57   58 2    
   114   57   59 am   BACKBONE|DICT|INTERRES
   115   59   60 1    
   116   59  125 1    
   117   60   61 1    
   118   60   62 1    
   119   60  126 1    
   120   61  127 1    
   121   61  128 1    
   122   61  129 1    
   123   62   63 2    
   124   62   64 am   BACKBONE|DICT|INTERRES
   125   64   65 1    
   126   64  130 1    
   127   65   66 1    
   128   65   69 1    
   129   65  131 1    
   130   66   67 am   BACKBONE|DICT|INTERRES
   131   66   68 2    
   132   67  132 1    
   133   67  133 1    
   134   69   70 1    
   135   69  134 1    
   136   69  135 1    
   137   70   71 1    
   138   71  136 1    
   139   71  137 1    
@<TRIPOS>SUBSTRUCTURE
     1 UNK         1 GROUP             0       ****    0 ROOT    
