@<TRIPOS>MOLECULE
3R137
137   139    1
SMALL
USER_CHARGES


@<TRIPOS>ATOM
      1 CA         27.2739   -6.1685    0.9158 C.3       0 UNK        -0.2020 
      2 C          27.2736   -4.6505    1.0152 C.2       0 UNK         0.4855 
      3 O          26.6497   -4.0960    1.9202 O.2       0 UNK        -0.5197 
      4 N          27.9709   -3.9754    0.0921 N.am      1 UNK        -0.4892 
      5 CA         28.0759   -2.5113    0.0248 C.3       1 UNK         0.0835 
      6 C6         29.2238   -2.0540   -0.9076 C.3       12 UNK        -0.0855 
      7 S7         30.8744   -2.5510   -0.3046 S.3       12 UNK        -0.2931 
      8 C8         31.1987   -4.1101   -1.1966 C.3       12 UNK         0.0378 
      9 C9         31.0937   -3.9662   -2.7095 C.ar      12 UNK        -0.0802 
     10 C10        31.9765   -3.1326   -3.3995 C.ar      12 UNK        -0.0944 
     11 C11        31.8937   -3.0023   -4.7881 C.ar      12 UNK        -0.0787 
     12 C12        30.9212   -3.7224   -5.4917 C.ar      12 UNK        -0.0862 
     13 C13        30.0327   -4.5683   -4.8133 C.ar      12 UNK        -0.0733 
     14 C14        30.1267   -4.6816   -3.4224 C.ar      12 UNK        -0.0832 
     15 C15        29.0148   -5.4284   -5.5604 C.3       12 UNK         0.0240 
     16 S16        28.1496   -4.5784   -6.9194 S.3       12 UNK        -0.2522 
     17 C17        27.0077   -3.4663   -6.0298 C.3       12 UNK        -0.0967 
     18 CA         26.6589   -2.2345   -6.9021 C.3       5 UNK         0.0660 
     19 N          25.3539   -1.6494   -6.5835 N.am      5 UNK        -0.4015 
     20 C          24.6976   -0.8054   -7.3955 C.2       4 UNK         0.4946 
     21 O          25.1084   -0.4600   -8.5028 O.2       4 UNK        -0.5353 
     22 CA         23.3814   -0.2095   -6.8714 C.3       4 UNK         0.0277 
     23 CB         22.2281   -1.2141   -7.0237 C.3       4 UNK        -0.1981 
     24 N          23.4779    0.2281   -5.4787 N.am      4 UNK        -0.4209 
     25 C          24.2870    1.2057   -5.0453 C.2       3 UNK         0.4942 
     26 O          24.9958    1.8890   -5.7830 O.2       3 UNK        -0.5208 
     27 CA         24.3512    1.4259   -3.5252 C.3       3 UNK         0.0250 
     28 CB         23.2758    2.4302   -3.0812 C.3       3 UNK        -0.1990 
     29 N          24.2270    0.1920   -2.7403 N.am      3 UNK        -0.4232 
     30 C          25.0495   -0.8628   -2.8286 C.2       2 UNK         0.4993 
     31 O          25.9771   -0.9533   -3.6385 O.2       2 UNK        -0.5286 
     32 CA         24.7588   -2.0399   -1.8850 C.3       2 UNK         0.0209 
     33 CB         24.0711   -3.1814   -2.6521 C.3       2 UNK        -0.1931 
     34 N          25.9888   -2.5436   -1.2745 N.am      2 UNK        -0.4546 
     35 C          26.7537   -1.8522   -0.4164 C.2       1 UNK         0.5154 
     36 O          26.4541   -0.7413    0.0252 O.2       1 UNK        -0.5181 
     37 C          27.7690   -1.1710   -6.8646 C.2       5 UNK         0.5014 
     38 O          28.5948   -1.1372   -7.7764 O.2       5 UNK        -0.5248 
     39 N          27.7349   -0.2923   -5.8505 N.am      6 UNK        -0.4434 
     40 CA         28.6573    0.8363   -5.7050 C.3       6 UNK         0.0363 
     41 CB         28.3797    1.5767   -4.3890 C.3       6 UNK        -0.1936 
     42 C          28.6291    1.8025   -6.9014 C.2       6 UNK         0.5081 
     43 O          29.6883    2.2660   -7.3270 O.2       6 UNK        -0.5248 
     44 N          27.4286    2.0565   -7.4398 N.am      7 UNK        -0.4718 
     45 CA         27.2146    2.8148   -8.6700 C.3       7 UNK         0.0273 
     46 CB         25.7346    3.2154   -8.7807 C.3       7 UNK        -0.1935 
     47 C          27.6706    2.0451   -9.9203 C.2       7 UNK         0.5018 
     48 O          28.4105    2.6075  -10.7270 O.2       7 UNK        -0.5186 
     49 N          27.2330    0.7837  -10.0630 N.am      8 UNK        -0.4240 
     50 CA         27.5114   -0.0676  -11.2267 C.3       8 UNK         0.0235 
     51 CB         26.6813   -1.3585  -11.1464 C.3       8 UNK        -0.2000 
     52 C          29.0001   -0.3994  -11.4148 C.2       8 UNK         0.4941 
     53 O          29.4947   -0.3282  -12.5406 O.2       8 UNK        -0.5273 
     54 N          29.6909   -0.7378  -10.3182 N.am      9 UNK        -0.4262 
     55 CA         31.1328   -0.9999  -10.3021 C.3       9 UNK         0.0264 
     56 CB         31.4679   -1.8846   -9.0902 C.3       9 UNK        -0.1955 
     57 C          31.9754    0.2882  -10.2751 C.2       9 UNK         0.5031 
     58 O          33.1862    0.2104  -10.4865 O.2       9 UNK        -0.5390 
     59 N          31.3343    1.4328   -9.9907 N.am      10 UNK        -0.4204 
     60 CA         31.9065    2.7749   -9.8278 C.3       10 UNK         0.0237 
     61 CB         32.5141    3.2827  -11.1528 C.3       10 UNK        -0.1985 
     62 C          32.8803    2.8981   -8.6375 C.2       10 UNK         0.4970 
     63 O          33.6889    3.8279   -8.6104 O.2       10 UNK        -0.4914 
     64 N          32.7811    1.9765   -7.6713 N.am      11 UNK        -0.4285 
     65 CA         33.5515    1.9817   -6.4221 C.3       11 UNK         0.1007 
     66 C          32.9680    2.9221   -5.3271 C.2       11 UNK         0.5703 
     67 N          31.7365    3.4060   -5.4531 N.am      11 UNK        -0.7361 
     68 O          33.6555    3.2340   -4.3575 O.2       11 UNK        -0.4986 
     69 C69        33.8099    0.5410   -5.9052 C.3       12 UNK        -0.0947 
     70 S70        32.2943   -0.3659   -5.4534 S.3       12 UNK        -0.2240 
     71 C71        32.8686   -2.0869   -5.5124 C.3       12 UNK         0.0194 
     72 H72        27.8724   -6.5245    0.0774 H         1 UNK         0.0906 
     73 H73        27.6788   -6.6036    1.8291 H         1 UNK         0.0906 
     74 H74        26.2562   -6.5359    0.7859 H         1 UNK         0.0906 
     75 H75        28.4767   -4.4834   -0.6168 H         1 UNK         0.3140 
     76 H76        28.2892   -2.1444    1.0317 H         1 UNK         0.1085 
     77 H77        29.0634   -2.4070   -1.9274 H         1 UNK         0.0836 
     78 H78        29.2374   -0.9642   -0.9786 H         1 UNK         0.0836 
     79 H79        32.2046   -4.4497   -0.9458 H         1 UNK         0.0731 
     80 H80        30.5232   -4.8825   -0.8280 H         1 UNK         0.0731 
     81 H81        32.7256   -2.5770   -2.8517 H         1 UNK         0.1312 
     82 H82        30.8631   -3.6316   -6.5676 H         1 UNK         0.1406 
     83 H83        29.4560   -5.3467   -2.8959 H         1 UNK         0.1631 
     84 H84        28.2664   -5.8300   -4.8753 H         1 UNK         0.0717 
     85 H85        29.5404   -6.2888   -5.9763 H         1 UNK         0.0717 
     86 H86        26.1076   -4.0416   -5.8076 H         1 UNK         0.0934 
     87 H87        27.4272   -3.1733   -5.0644 H         1 UNK         0.0934 
     88 H88        26.5833   -2.5752   -7.9373 H         1 UNK         0.0739 
     89 H89        24.9939   -1.8179   -5.6556 H         1 UNK         0.3093 
     90 H90        23.1523    0.6680   -7.4804 H         1 UNK         0.0818 
     91 H91        21.2744   -0.7689   -6.7395 H         1 UNK         0.0819 
     92 H92        22.1332   -1.5425   -8.0599 H         1 UNK         0.0819 
     93 H93        22.3787   -2.1048   -6.4124 H         1 UNK         0.0819 
     94 H94        22.9216   -0.2692   -4.7990 H         1 UNK         0.3041 
     95 H95        25.3285    1.8552   -3.2983 H         1 UNK         0.0784 
     96 H96        23.3619    3.3646   -3.6379 H         1 UNK         0.0793 
     97 H97        22.2685    2.0452   -3.2448 H         1 UNK         0.0793 
     98 H98        23.3746    2.6767   -2.0238 H         1 UNK         0.0793 
     99 H99        23.4872    0.1744   -2.0526 H         1 UNK         0.3024 
    100 H100       24.0973   -1.7045   -1.0829 H         1 UNK         0.1171 
    101 H101       23.1375   -2.8439   -3.1042 H         1 UNK         0.0786 
    102 H102       23.8255   -4.0119   -1.9898 H         1 UNK         0.0786 
    103 H103       24.7017   -3.5680   -3.4540 H         1 UNK         0.0786 
    104 H104       26.3189   -3.4437   -1.5878 H         1 UNK         0.2977 
    105 H105       27.0408   -0.4193   -5.1167 H         1 UNK         0.3127 
    106 H106       29.6589    0.4162   -5.6506 H         1 UNK         0.0770 
    107 H107       27.4057    2.0646   -4.4008 H         1 UNK         0.0814 
    108 H108       29.1289    2.3500   -4.2155 H         1 UNK         0.0814 
    109 H109       28.4084    0.8984   -3.5359 H         1 UNK         0.0814 
    110 H110       26.6008    1.6951   -6.9750 H         1 UNK         0.2983 
    111 H111       27.8084    3.7298   -8.6099 H         1 UNK         0.0947 
    112 H112       25.5509    3.7883   -9.6905 H         1 UNK         0.0806 
    113 H113       25.4306    3.8369   -7.9382 H         1 UNK         0.0806 
    114 H114       25.0787    2.3442   -8.8029 H         1 UNK         0.0806 
    115 H115       26.6036    0.3980   -9.3626 H         1 UNK         0.3000 
    116 H116       27.1882    0.4828  -12.1129 H         1 UNK         0.0850 
    117 H117       26.8644   -1.9971  -12.0116 H         1 UNK         0.0810 
    118 H118       25.6131   -1.1423  -11.1249 H         1 UNK         0.0810 
    119 H119       26.9242   -1.9377  -10.2552 H         1 UNK         0.0810 
    120 H120       29.2058   -0.8103   -9.4219 H         1 UNK         0.3040 
    121 H121       31.4018   -1.5490  -11.2069 H         1 UNK         0.0766 
    122 H122       32.5266   -2.1463   -9.0765 H         1 UNK         0.0812 
    123 H123       30.9019   -2.8161   -9.1095 H         1 UNK         0.0812 
    124 H124       31.2437   -1.3785   -8.1508 H         1 UNK         0.0812 
    125 H125       30.3357    1.3782   -9.8375 H         1 UNK         0.3205 
    126 H126       31.0635    3.4239   -9.5856 H         1 UNK         0.0754 
    127 H127       32.7945    4.3340  -11.0786 H         1 UNK         0.0769 
    128 H128       31.8004    3.1972  -11.9725 H         1 UNK         0.0769 
    129 H129       33.4106    2.7263  -11.4276 H         1 UNK         0.0769 
    130 H130       32.0478    1.2861   -7.7359 H         1 UNK         0.2981 
    131 H131       34.5352    2.3948   -6.6527 H         1 UNK         0.0541 
    132 H132       31.1468    3.1177   -6.2261 H         1 UNK         0.3459 
    133 H133       31.3772    4.0264   -4.7462 H         1 UNK         0.3459 
    134 H134       34.4713    0.5601   -5.0372 H         1 UNK         0.0612 
    135 H135       34.3390   -0.0280   -6.6714 H         1 UNK         0.0612 
    136 H136       32.9935   -2.3963   -6.5505 H         1 UNK         0.0624 
    137 H137       33.8527   -2.1577   -5.0463 H         1 UNK         0.0624 
@<TRIPOS>BOND
     1    1    2 1    
     2    1   72 1    
     3    1   73 1    
     4    1   74 1    
     5    2    3 2    
     6    2    4 am   BACKBONE|DICT|INTERRES
     7    4    5 1    
     8    4   75 1    
     9    5    6 1    
    10    5   35 1    
    11    5   76 1    
    12    6    7 1    
    13    6   77 1    
    14    6   78 1    
    15    7    8 1    
    16    8    9 1    
    17    8   79 1    
    18    8   80 1    
    19    9   10 ar   
    20    9   14 ar   
    21   10   11 ar   
    22   10   81 1    
    23   11   12 ar   
    24   11   71 1    
    25   12   13 ar   
    26   12   82 1    
    27   13   14 ar   
    28   13   15 1    
    29   14   83 1    
    30   15   16 1    
    31   15   84 1    
    32   15   85 1    
    33   16   17 1    
    34   17   18 1    
    35   17   86 1    
    36   17   87 1    
    37   18   19 1    
    38   18   37 1    
    39   18   88 1    
    40   19   20 am   BACKBONE|DICT|INTERRES
    41   19   89 1    
    42   20   21 2    
    43   20   22 1    
    44   22   23 1    
    45   22   24 1    
    46   22   90 1    
    47   23   91 1    
    48   23   92 1    
    49   23   93 1    
    50   24   25 am   BACKBONE|DICT|INTERRES
    51   24   94 1    
    52   25   26 2    
    53   25   27 1    
    54   27   28 1    
    55   27   29 1    
    56   27   95 1    
    57   28   96 1    
    58   28   97 1    
    59   28   98 1    
    60   29   30 am   BACKBONE|DICT|INTERRES
    61   29   99 1    
    62   30   31 2    
    63   30   32 1    
    64   32   33 1    
    65   32   34 1    
    66   32  100 1    
    67   33  101 1    
    68   33  102 1    
    69   33  103 1    
    70   34   35 am   BACKBONE|DICT|INTERRES
    71   34  104 1    
    72   35   36 2    
    73   37   38 2    
    74   37   39 am   BACKBONE|DICT|INTERRES
    75   39   40 1    
    76   39  105 1    
    77   40   41 1    
    78   40   42 1    
    79   40  106 1    
    80   41  107 1    
    81   41  108 1    
    82   41  109 1    
    83   42   43 2    
    84   42   44 am   BACKBONE|DICT|INTERRES
    85   44   45 1    
    86   44  110 1    
    87   45   46 1    
    88   45   47 1    
    89   45  111 1    
    90   46  112 1    
    91   46  113 1    
    92   46  114 1    
    93   47   48 2    
    94   47   49 am   BACKBONE|DICT|INTERRES
    95   49   50 1    
    96   49  115 1    
    97   50   51 1    
    98   50   52 1    
    99   50  116 1    
   100   51  117 1    
   101   51  118 1    
   102   51  119 1    
   103   52   53 2    
   104   52   54 am   BACKBONE|DICT|INTERRES
   105   54   55 1    
   106   54  120 1    
   107   55   56 1    
   108   55   57 1    
   109   55  121 1    
   110   56  122 1    
   111   56  123 1    
   112   56  124 1    
   113   57   58 2    
   114   57   59 am   BACKBONE|DICT|INTERRES
   115   59   60 1    
   116   59  125 1    
   117   60   61 1    
   118   60   62 1    
   119   60  126 1    
   120   61  127 1    
   121   61  128 1    
   122   61  129 1    
   123   62   63 2    
   124   62   64 am   BACKBONE|DICT|INTERRES
   125   64   65 1    
   126   64  130 1    
   127   65   66 1    
   128   65   69 1    
   129   65  131 1    
   130   66   67 am   BACKBONE|DICT|INTERRES
   131   66   68 2    
   132   67  132 1    
   133   67  133 1    
   134   69   70 1    
   135   69  134 1    
   136   69  135 1    
   137   70   71 1    
   138   71  136 1    
   139   71  137 1    
@<TRIPOS>SUBSTRUCTURE
     1 UNK         1 GROUP             0       ****    0 ROOT    
