@<TRIPOS>MOLECULE
3R137
137   139    1
SMALL
USER_CHARGES


@<TRIPOS>ATOM
      1 CA         28.1094   -1.0718    3.1996 C.3       0 UNK        -0.2020 
      2 C          27.5571   -1.6771    1.9177 C.2       0 UNK         0.4855 
      3 O          26.8201   -2.6610    1.9780 O.2       0 UNK        -0.5197 
      4 N          27.9063   -1.0912    0.7622 N.am      1 UNK        -0.4892 
      5 CA         27.4908   -1.5096   -0.5870 C.3       1 UNK         0.0835 
      6 C6         27.9734   -2.9458   -0.9447 C.3       12 UNK        -0.0855 
      7 S7         28.3151   -3.1436   -2.7253 S.3       12 UNK        -0.2931 
      8 C8         30.0570   -3.6854   -2.7206 C.3       12 UNK         0.0378 
      9 C9         30.5934   -3.8706   -4.1355 C.ar      12 UNK        -0.0802 
     10 C10        31.7917   -3.2658   -4.5296 C.ar      12 UNK        -0.0944 
     11 C11        32.2795   -3.4384   -5.8289 C.ar      12 UNK        -0.0787 
     12 C12        31.5449   -4.1994   -6.7459 C.ar      12 UNK        -0.0862 
     13 C13        30.3493   -4.8176   -6.3643 C.ar      12 UNK        -0.0733 
     14 C14        29.8956   -4.6633   -5.0505 C.ar      12 UNK        -0.0832 
     15 C15        29.5965   -5.7069   -7.3511 C.3       12 UNK         0.0240 
     16 S16        27.7766   -5.5872   -7.2146 S.3       12 UNK        -0.2522 
     17 C17        27.3385   -4.3983   -8.5280 C.3       12 UNK        -0.0967 
     18 CA         26.9471   -2.9833   -8.0321 C.3       5 UNK         0.0660 
     19 N          25.9735   -2.9963   -6.9291 N.am      5 UNK        -0.4015 
     20 C          25.3218   -1.9212   -6.4600 C.2       4 UNK         0.4946 
     21 O          25.5252   -0.7844   -6.8934 O.2       4 UNK        -0.5353 
     22 CA         24.2997   -2.1418   -5.3222 C.3       4 UNK         0.0277 
     23 CB         24.5718   -3.4141   -4.4944 C.3       4 UNK        -0.1981 
     24 N          24.2565   -0.9839   -4.4227 N.am      4 UNK        -0.4209 
     25 C          23.5925    0.1568   -4.6691 C.2       3 UNK         0.4942 
     26 O          22.8075    0.2977   -5.6097 O.2       3 UNK        -0.5208 
     27 CA         23.8717    1.3487   -3.7267 C.3       3 UNK         0.0250 
     28 CB         22.7778    2.4373   -3.7876 C.3       3 UNK        -0.1990 
     29 N          24.1516    0.9605   -2.3385 N.am      3 UNK        -0.4232 
     30 C          23.3313    0.3187   -1.4924 C.2       2 UNK         0.4993 
     31 O          22.1720    0.0016   -1.7652 O.2       2 UNK        -0.5286 
     32 CA         23.9198   -0.0327   -0.1079 C.3       2 UNK         0.0209 
     33 CB         23.1423   -1.1695    0.5903 C.3       2 UNK        -0.1931 
     34 N          25.3598   -0.3454   -0.1199 N.am      2 UNK        -0.4546 
     35 C          25.9786   -1.2889   -0.8510 C.2       1 UNK         0.5154 
     36 O          25.4031   -1.9483   -1.7167 O.2       1 UNK        -0.5181 
     37 C          28.1747   -2.0717   -7.8165 C.2       5 UNK         0.5014 
     38 O          28.7953   -1.6882   -8.8084 O.2       5 UNK        -0.5248 
     39 N          28.4512   -1.6562   -6.5704 N.am      6 UNK        -0.4434 
     40 CA         29.3958   -0.5851   -6.2407 C.3       6 UNK         0.0363 
     41 CB         29.4325   -0.3593   -4.7211 C.3       6 UNK        -0.1936 
     42 C          29.0834    0.7518   -6.9317 C.2       6 UNK         0.5081 
     43 O          30.0180    1.4633   -7.2951 O.2       6 UNK        -0.5248 
     44 N          27.7937    1.0711   -7.1135 N.am      7 UNK        -0.4718 
     45 CA         27.3479    2.2864   -7.7988 C.3       7 UNK         0.0273 
     46 CB         25.8757    2.5616   -7.4521 C.3       7 UNK        -0.1935 
     47 C          27.5441    2.2060   -9.3217 C.2       7 UNK         0.5018 
     48 O          27.8091    3.2311   -9.9493 O.2       7 UNK        -0.5186 
     49 N          27.4246    0.9950   -9.8833 N.am      8 UNK        -0.4240 
     50 CA         27.6399    0.7143  -11.3033 C.3       8 UNK         0.0235 
     51 CB         26.9304   -0.5959  -11.6852 C.3       8 UNK        -0.2000 
     52 C          29.1351    0.6496  -11.6497 C.2       8 UNK         0.4941 
     53 O          29.5549    1.2436  -12.6432 O.2       8 UNK        -0.5273 
     54 N          29.9101   -0.0624  -10.8206 N.am      9 UNK        -0.4262 
     55 CA         31.3542   -0.2505  -10.9774 C.3       9 UNK         0.0264 
     56 CB         31.7635   -1.5289  -10.2288 C.3       9 UNK        -0.1955 
     57 C          32.1968    0.9547  -10.5157 C.2       9 UNK         0.5031 
     58 O          33.3875    0.9952  -10.8294 O.2       9 UNK        -0.5390 
     59 N          31.5783    1.9010   -9.7922 N.am      10 UNK        -0.4204 
     60 CA         32.1697    3.1008   -9.1857 C.3       10 UNK         0.0237 
     61 CB         32.7124    4.0671  -10.2609 C.3       10 UNK        -0.1985 
     62 C          33.2011    2.7508   -8.0952 C.2       10 UNK         0.4970 
     63 O          34.3051    3.2992   -8.0806 O.2       10 UNK        -0.4914 
     64 N          32.8090    1.8355   -7.2020 N.am      11 UNK        -0.4285 
     65 CA         33.6120    1.3600   -6.0639 C.3       11 UNK         0.1007 
     66 C          33.5558    2.2941   -4.8212 C.2       11 UNK         0.5703 
     67 N          32.6798    3.2916   -4.7744 N.am      11 UNK        -0.7361 
     68 O          34.3315    2.1168   -3.8849 O.2       11 UNK        -0.4986 
     69 C69        33.2584   -0.1012   -5.6779 C.3       12 UNK        -0.0947 
     70 S70        33.4707   -1.2535   -7.0739 S.3       12 UNK        -0.2240 
     71 C71        33.6279   -2.8543   -6.2286 C.3       12 UNK         0.0194 
     72 H72        28.7007   -1.8115    3.7385 H         1 UNK         0.0906 
     73 H73        28.7444   -0.2078    3.0045 H         1 UNK         0.0906 
     74 H74        27.2922   -0.7528    3.8461 H         1 UNK         0.0906 
     75 H75        28.5177   -0.2856    0.7905 H         1 UNK         0.3140 
     76 H76        27.9982   -0.8142   -1.2579 H         1 UNK         0.1085 
     77 H77        28.8863   -3.1791   -0.3949 H         1 UNK         0.0836 
     78 H78        27.2468   -3.6984   -0.6322 H         1 UNK         0.0836 
     79 H79        30.1424   -4.6290   -2.1800 H         1 UNK         0.0731 
     80 H80        30.6542   -2.9521   -2.1763 H         1 UNK         0.0731 
     81 H81        32.3536   -2.6708   -3.8227 H         1 UNK         0.1312 
     82 H82        31.9229   -4.3323   -7.7505 H         1 UNK         0.1406 
     83 H83        28.9859   -5.1543   -4.7336 H         1 UNK         0.1631 
     84 H84        29.9073   -5.4995   -8.3758 H         1 UNK         0.0717 
     85 H85        29.8824   -6.7405   -7.1526 H         1 UNK         0.0717 
     86 H86        28.1311   -4.3486   -9.2774 H         1 UNK         0.0934 
     87 H87        26.4861   -4.8265   -9.0579 H         1 UNK         0.0934 
     88 H88        26.4177   -2.5149   -8.8649 H         1 UNK         0.0739 
     89 H89        25.7923   -3.8997   -6.5155 H         1 UNK         0.3093 
     90 H90        23.3209   -2.2541   -5.7929 H         1 UNK         0.0818 
     91 H91        23.8773   -3.4919   -3.6573 H         1 UNK         0.0819 
     92 H92        24.4457   -4.3186   -5.0901 H         1 UNK         0.0819 
     93 H93        25.5811   -3.4220   -4.0809 H         1 UNK         0.0819 
     94 H94        24.8281   -1.0479   -3.5882 H         1 UNK         0.3041 
     95 H95        24.7930    1.7993   -4.0990 H         1 UNK         0.0784 
     96 H96        22.6779    2.8355   -4.7982 H         1 UNK         0.0793 
     97 H97        21.8022    2.0480   -3.4949 H         1 UNK         0.0793 
     98 H98        23.0150    3.2763   -3.1336 H         1 UNK         0.0793 
     99 H99        25.0830    1.1689   -2.0066 H         1 UNK         0.3024 
    100 H100       23.8023    0.8665    0.4994 H         1 UNK         0.1171 
    101 H101       23.5574   -1.3878    1.5744 H         1 UNK         0.0786 
    102 H102       22.0950   -0.9011    0.7346 H         1 UNK         0.0786 
    103 H103       23.1660   -2.0901    0.0059 H         1 UNK         0.0786 
    104 H104       25.9237    0.1593    0.5503 H         1 UNK         0.2977 
    105 H105       27.9097   -2.0352   -5.8080 H         1 UNK         0.3127 
    106 H106       30.3826   -0.9077   -6.5770 H         1 UNK         0.0770 
    107 H107       28.4346   -0.2097   -4.3074 H         1 UNK         0.0814 
    108 H108       30.0254    0.5199   -4.4642 H         1 UNK         0.0814 
    109 H109       29.8887   -1.2009   -4.2084 H         1 UNK         0.0814 
    110 H110       27.0703    0.4125   -6.8341 H         1 UNK         0.2983 
    111 H111       27.9446    3.1259   -7.4343 H         1 UNK         0.0947 
    112 H112       25.2213    1.7579   -7.7921 H         1 UNK         0.0806 
    113 H113       25.5304    3.4835   -7.9219 H         1 UNK         0.0806 
    114 H114       25.7355    2.6738   -6.3772 H         1 UNK         0.0806 
    115 H115       27.2384    0.2069   -9.2797 H         1 UNK         0.3000 
    116 H116       27.1947    1.5220  -11.8889 H         1 UNK         0.0850 
    117 H117       27.0506   -0.8061  -12.7488 H         1 UNK         0.0810 
    118 H118       25.8601   -0.5395  -11.4861 H         1 UNK         0.0810 
    119 H119       27.3286   -1.4515  -11.1387 H         1 UNK         0.0810 
    120 H120       29.4732   -0.5656  -10.0481 H         1 UNK         0.3040 
    121 H121       31.5698   -0.3999  -12.0375 H         1 UNK         0.0766 
    122 H122       31.2766   -2.4077  -10.6515 H         1 UNK         0.0812 
    123 H123       31.4912   -1.4769   -9.1747 H         1 UNK         0.0812 
    124 H124       32.8402   -1.6951  -10.2835 H         1 UNK         0.0812 
    125 H125       30.6149    1.7265   -9.5382 H         1 UNK         0.3205 
    126 H126       31.3524    3.6119   -8.6745 H         1 UNK         0.0754 
    127 H127       33.0300    5.0091   -9.8124 H         1 UNK         0.0769 
    128 H128       31.9489    4.3026  -11.0025 H         1 UNK         0.0769 
    129 H129       33.5735    3.6525  -10.7858 H         1 UNK         0.0769 
    130 H130       31.8531    1.4920   -7.2573 H         1 UNK         0.2981 
    131 H131       34.6576    1.3593   -6.3776 H         1 UNK         0.0541 
    132 H132       32.0363    3.4415   -5.5344 H         1 UNK         0.3459 
    133 H133       32.6591    3.8932   -3.9663 H         1 UNK         0.3459 
    134 H134       32.2332   -0.1699   -5.3168 H         1 UNK         0.0612 
    135 H135       33.8954   -0.4386   -4.8583 H         1 UNK         0.0612 
    136 H136       34.2785   -2.7527   -5.3588 H         1 UNK         0.0624 
    137 H137       34.1351   -3.5477   -6.9009 H         1 UNK         0.0624 
@<TRIPOS>BOND
     1    1    2 1    
     2    1   72 1    
     3    1   73 1    
     4    1   74 1    
     5    2    3 2    
     6    2    4 am   BACKBONE|DICT|INTERRES
     7    4    5 1    
     8    4   75 1    
     9    5    6 1    
    10    5   35 1    
    11    5   76 1    
    12    6    7 1    
    13    6   77 1    
    14    6   78 1    
    15    7    8 1    
    16    8    9 1    
    17    8   79 1    
    18    8   80 1    
    19    9   10 ar   
    20    9   14 ar   
    21   10   11 ar   
    22   10   81 1    
    23   11   12 ar   
    24   11   71 1    
    25   12   13 ar   
    26   12   82 1    
    27   13   14 ar   
    28   13   15 1    
    29   14   83 1    
    30   15   16 1    
    31   15   84 1    
    32   15   85 1    
    33   16   17 1    
    34   17   18 1    
    35   17   86 1    
    36   17   87 1    
    37   18   19 1    
    38   18   37 1    
    39   18   88 1    
    40   19   20 am   BACKBONE|DICT|INTERRES
    41   19   89 1    
    42   20   21 2    
    43   20   22 1    
    44   22   23 1    
    45   22   24 1    
    46   22   90 1    
    47   23   91 1    
    48   23   92 1    
    49   23   93 1    
    50   24   25 am   BACKBONE|DICT|INTERRES
    51   24   94 1    
    52   25   26 2    
    53   25   27 1    
    54   27   28 1    
    55   27   29 1    
    56   27   95 1    
    57   28   96 1    
    58   28   97 1    
    59   28   98 1    
    60   29   30 am   BACKBONE|DICT|INTERRES
    61   29   99 1    
    62   30   31 2    
    63   30   32 1    
    64   32   33 1    
    65   32   34 1    
    66   32  100 1    
    67   33  101 1    
    68   33  102 1    
    69   33  103 1    
    70   34   35 am   BACKBONE|DICT|INTERRES
    71   34  104 1    
    72   35   36 2    
    73   37   38 2    
    74   37   39 am   BACKBONE|DICT|INTERRES
    75   39   40 1    
    76   39  105 1    
    77   40   41 1    
    78   40   42 1    
    79   40  106 1    
    80   41  107 1    
    81   41  108 1    
    82   41  109 1    
    83   42   43 2    
    84   42   44 am   BACKBONE|DICT|INTERRES
    85   44   45 1    
    86   44  110 1    
    87   45   46 1    
    88   45   47 1    
    89   45  111 1    
    90   46  112 1    
    91   46  113 1    
    92   46  114 1    
    93   47   48 2    
    94   47   49 am   BACKBONE|DICT|INTERRES
    95   49   50 1    
    96   49  115 1    
    97   50   51 1    
    98   50   52 1    
    99   50  116 1    
   100   51  117 1    
   101   51  118 1    
   102   51  119 1    
   103   52   53 2    
   104   52   54 am   BACKBONE|DICT|INTERRES
   105   54   55 1    
   106   54  120 1    
   107   55   56 1    
   108   55   57 1    
   109   55  121 1    
   110   56  122 1    
   111   56  123 1    
   112   56  124 1    
   113   57   58 2    
   114   57   59 am   BACKBONE|DICT|INTERRES
   115   59   60 1    
   116   59  125 1    
   117   60   61 1    
   118   60   62 1    
   119   60  126 1    
   120   61  127 1    
   121   61  128 1    
   122   61  129 1    
   123   62   63 2    
   124   62   64 am   BACKBONE|DICT|INTERRES
   125   64   65 1    
   126   64  130 1    
   127   65   66 1    
   128   65   69 1    
   129   65  131 1    
   130   66   67 am   BACKBONE|DICT|INTERRES
   131   66   68 2    
   132   67  132 1    
   133   67  133 1    
   134   69   70 1    
   135   69  134 1    
   136   69  135 1    
   137   70   71 1    
   138   71  136 1    
   139   71  137 1    
@<TRIPOS>SUBSTRUCTURE
     1 UNK         1 GROUP             0       ****    0 ROOT    
