@<TRIPOS>MOLECULE
3R137
137   139    1
SMALL
USER_CHARGES


@<TRIPOS>ATOM
      1 CA         28.3808   -6.6835   -0.1324 C.3       0 UNK        -0.2020 
      2 C          27.6628   -5.4271    0.3372 C.2       0 UNK         0.4855 
      3 O          26.7116   -5.5181    1.1134 O.2       0 UNK        -0.5197 
      4 N          28.1122   -4.2544   -0.1280 N.am      1 UNK        -0.4892 
      5 CA         27.5416   -2.9432    0.2083 C.3       1 UNK         0.0835 
      6 C6         28.4993   -1.7850   -0.1611 C.3       12 UNK        -0.0855 
      7 S7         30.0951   -1.8349    0.7313 S.3       12 UNK        -0.2931 
      8 C8         31.1986   -2.7947   -0.3672 C.3       12 UNK         0.0378 
      9 C9         31.1106   -2.3811   -1.8313 C.ar      12 UNK        -0.0802 
     10 C10        31.4070   -1.0716   -2.2151 C.ar      12 UNK        -0.0944 
     11 C11        31.3037   -0.6763   -3.5513 C.ar      12 UNK        -0.0787 
     12 C12        30.8909   -1.6121   -4.5105 C.ar      12 UNK        -0.0862 
     13 C13        30.6166   -2.9384   -4.1462 C.ar      12 UNK        -0.0733 
     14 C14        30.7305   -3.3099   -2.8036 C.ar      12 UNK        -0.0832 
     15 C15        30.2475   -4.0188   -5.1651 C.3       12 UNK         0.0240 
     16 S16        29.4656   -3.4292   -6.7019 S.3       12 UNK        -0.2522 
     17 C17        27.8580   -2.8346   -6.0878 C.3       12 UNK        -0.0967 
     18 CA         27.2501   -1.7568   -7.0169 C.3       5 UNK         0.0660 
     19 N          25.8060   -1.6204   -6.8128 N.am      5 UNK        -0.4015 
     20 C          24.9739   -1.0074   -7.6675 C.2       4 UNK         0.4946 
     21 O          25.3346   -0.5087   -8.7324 O.2       4 UNK        -0.5353 
     22 CA         23.4946   -0.9005   -7.2572 C.3       4 UNK         0.0277 
     23 CB         22.7206   -2.1493   -7.7082 C.3       4 UNK        -0.1981 
     24 N          23.3063   -0.7000   -5.8190 N.am      4 UNK        -0.4209 
     25 C          23.7368    0.3711   -5.1367 C.2       3 UNK         0.4942 
     26 O          24.2950    1.3348   -5.6572 O.2       3 UNK        -0.5208 
     27 CA         23.5726    0.3353   -3.6087 C.3       3 UNK         0.0250 
     28 CB         22.2185    0.9348   -3.1979 C.3       3 UNK        -0.1990 
     29 N          23.7145   -1.0068   -3.0318 N.am      3 UNK        -0.4232 
     30 C          24.8109   -1.7705   -3.1363 C.2       2 UNK         0.4993 
     31 O          25.8163   -1.4493   -3.7768 O.2       2 UNK        -0.5286 
     32 CA         24.7611   -3.1466   -2.4562 C.3       2 UNK         0.0209 
     33 CB         24.6875   -4.2649   -3.5092 C.3       2 UNK        -0.1931 
     34 N          25.9424   -3.3485   -1.6200 N.am      2 UNK        -0.4546 
     35 C          26.1721   -2.7097   -0.4634 C.2       1 UNK         0.5154 
     36 O          25.3584   -1.9528    0.0692 O.2       1 UNK        -0.5181 
     37 C          27.9620   -0.3980   -6.8733 C.2       5 UNK         0.5014 
     38 O          28.8292   -0.0740   -7.6882 O.2       5 UNK        -0.5248 
     39 N          27.5485    0.3874   -5.8682 N.am      6 UNK        -0.4434 
     40 CA         28.0127    1.7575   -5.6509 C.3       6 UNK         0.0363 
     41 CB         27.5420    2.2497   -4.2737 C.3       6 UNK        -0.1936 
     42 C          27.5673    2.7173   -6.7688 C.2       6 UNK         0.5081 
     43 O          28.3659    3.5509   -7.1938 O.2       6 UNK        -0.5248 
     44 N          26.3228    2.5670   -7.2474 N.am      7 UNK        -0.4718 
     45 CA         25.7617    3.3238   -8.3713 C.3       7 UNK         0.0273 
     46 CB         24.2478    3.0772   -8.4640 C.3       7 UNK        -0.1935 
     47 C          26.4470    3.0047   -9.7105 C.2       7 UNK         0.5018 
     48 O          26.7239    3.9274  -10.4778 O.2       7 UNK        -0.5186 
     49 N          26.7326    1.7169   -9.9579 N.am      8 UNK        -0.4240 
     50 CA         27.5208    1.2485  -11.1036 C.3       8 UNK         0.0235 
     51 CB         27.3995   -0.2798  -11.2187 C.3       8 UNK        -0.2000 
     52 C          29.0027    1.6567  -11.0220 C.2       8 UNK         0.4941 
     53 O          29.6487    1.7809  -12.0630 O.2       8 UNK        -0.5273 
     54 N          29.5019    1.8491   -9.7921 N.am      9 UNK        -0.4262 
     55 CA         30.8654    2.2295   -9.4186 C.3       9 UNK         0.0264 
     56 CB         31.2092    3.6443   -9.9297 C.3       9 UNK        -0.1955 
     57 C          31.9075    1.1696   -9.8149 C.2       9 UNK         0.5031 
     58 O          33.0278    1.5188  -10.1923 O.2       9 UNK        -0.5390 
     59 N          31.5404   -0.1153   -9.6858 N.am      10 UNK        -0.4204 
     60 CA         32.4193   -1.2635   -9.9551 C.3       10 UNK         0.0237 
     61 CB         31.5951   -2.5583   -9.9087 C.3       10 UNK        -0.1985 
     62 C          33.6244   -1.3447   -8.9966 C.2       10 UNK         0.4970 
     63 O          34.6622   -1.8973   -9.3618 O.2       10 UNK        -0.4914 
     64 N          33.4643   -0.7552   -7.8082 N.am      11 UNK        -0.4285 
     65 CA         34.5084   -0.4451   -6.8250 C.3       11 UNK         0.1007 
     66 C          35.5319    0.6450   -7.2656 C.2       11 UNK         0.5703 
     67 N          35.3212    1.3792   -8.3527 N.am      11 UNK        -0.7361 
     68 O          36.5556    0.8176   -6.6081 O.2       11 UNK        -0.4986 
     69 C69        33.8797   -0.1201   -5.4404 C.3       12 UNK        -0.0947 
     70 S70        32.4333    1.0030   -5.5414 S.3       12 UNK        -0.2240 
     71 C71        31.6419    0.7700   -3.9135 C.3       12 UNK         0.0194 
     72 H72        27.6858   -7.3384   -0.6571 H         1 UNK         0.0906 
     73 H73        29.2070   -6.4565   -0.8059 H         1 UNK         0.0906 
     74 H74        28.7814   -7.2275    0.7227 H         1 UNK         0.0906 
     75 H75        28.9058   -4.2346   -0.7490 H         1 UNK         0.3140 
     76 H76        27.3740   -2.9157    1.2877 H         1 UNK         0.1085 
     77 H77        28.6582   -1.7414   -1.2393 H         1 UNK         0.0836 
     78 H78        28.0376   -0.8292    0.0959 H         1 UNK         0.0836 
     79 H79        32.2267   -2.6644   -0.0266 H         1 UNK         0.0731 
     80 H80        30.9774   -3.8559   -0.2473 H         1 UNK         0.0731 
     81 H81        31.7094   -0.3557   -1.4627 H         1 UNK         0.1312 
     82 H82        30.8109   -1.3100   -5.5448 H         1 UNK         0.1406 
     83 H83        30.5311   -4.3340   -2.5189 H         1 UNK         0.1631 
     84 H84        29.5814   -4.7527   -4.7083 H         1 UNK         0.0717 
     85 H85        31.1583   -4.5554   -5.4334 H         1 UNK         0.0717 
     86 H86        27.1979   -3.7017   -6.0359 H         1 UNK         0.0934 
     87 H87        27.9548   -2.4674   -5.0639 H         1 UNK         0.0934 
     88 H88        27.3893   -2.0852   -8.0497 H         1 UNK         0.0739 
     89 H89        25.4509   -1.9246   -5.9162 H         1 UNK         0.3093 
     90 H90        23.0721   -0.0345   -7.7706 H         1 UNK         0.0818 
     91 H91        21.6541   -2.0505   -7.5050 H         1 UNK         0.0819 
     92 H92        22.8296   -2.3075   -8.7822 H         1 UNK         0.0819 
     93 H93        23.0767   -3.0511   -7.2085 H         1 UNK         0.0819 
     94 H94        22.8468   -1.4395   -5.3081 H         1 UNK         0.3041 
     95 H95        24.3639    0.9571   -3.1845 H         1 UNK         0.0784 
     96 H96        22.1002    1.9420   -3.6004 H         1 UNK         0.0793 
     97 H97        21.3823    0.3375   -3.5637 H         1 UNK         0.0793 
     98 H98        22.1299    1.0100   -2.1138 H         1 UNK         0.0793 
     99 H99        22.9329   -1.3464   -2.4892 H         1 UNK         0.3024 
    100 H100       23.8745   -3.2069   -1.8207 H         1 UNK         0.1171 
    101 H101       23.8086   -4.1481   -4.1446 H         1 UNK         0.0786 
    102 H102       24.6169   -5.2462   -3.0393 H         1 UNK         0.0786 
    103 H103       25.5630   -4.2683   -4.1595 H         1 UNK         0.0786 
    104 H104       26.6735   -3.9345   -1.9939 H         1 UNK         0.2977 
    105 H105       26.8431    0.0322   -5.2340 H         1 UNK         0.3127 
    106 H106       29.1046    1.7404   -5.6518 H         1 UNK         0.0770 
    107 H107       26.4542    2.2811   -4.2049 H         1 UNK         0.0814 
    108 H108       27.9108    3.2567   -4.0745 H         1 UNK         0.0814 
    109 H109       27.9107    1.6051   -3.4754 H         1 UNK         0.0814 
    110 H110       25.6951    1.9178   -6.7783 H         1 UNK         0.2983 
    111 H111       25.9200    4.3849   -8.1665 H         1 UNK         0.0947 
    112 H112       23.8060    3.6609   -9.2727 H         1 UNK         0.0806 
    113 H113       23.7417    3.3649   -7.5423 H         1 UNK         0.0806 
    114 H114       24.0215    2.0286   -8.6570 H         1 UNK         0.0806 
    115 H115       26.3887    1.0038   -9.3190 H         1 UNK         0.3000 
    116 H116       27.1041    1.6965  -12.0081 H         1 UNK         0.0850 
    117 H117       27.9657   -0.6552  -12.0722 H         1 UNK         0.0810 
    118 H118       26.3624   -0.5853  -11.3581 H         1 UNK         0.0810 
    119 H119       27.7785   -0.7821  -10.3277 H         1 UNK         0.0810 
    120 H120       28.8915    1.6420   -9.0098 H         1 UNK         0.3040 
    121 H121       30.8748    2.2656   -8.3279 H         1 UNK         0.0766 
    122 H122       30.4568    4.3691   -9.6182 H         1 UNK         0.0812 
    123 H123       31.2795    3.6773  -11.0173 H         1 UNK         0.0812 
    124 H124       32.1673    3.9809   -9.5318 H         1 UNK         0.0812 
    125 H125       30.6101   -0.3126   -9.3373 H         1 UNK         0.3205 
    126 H126       32.8158   -1.1465  -10.9658 H         1 UNK         0.0754 
    127 H127       32.2130   -3.4238  -10.1518 H         1 UNK         0.0769 
    128 H128       30.7737   -2.5346  -10.6252 H         1 UNK         0.0769 
    129 H129       31.1737   -2.7272   -8.9188 H         1 UNK         0.0769 
    130 H130       32.5694   -0.3344   -7.6083 H         1 UNK         0.2981 
    131 H131       35.1005   -1.3539   -6.7037 H         1 UNK         0.0541 
    132 H132       34.4883    1.2681   -8.9217 H         1 UNK         0.3459 
    133 H133       36.0072    2.0697   -8.6114 H         1 UNK         0.3459 
    134 H134       34.6119    0.3029   -4.7501 H         1 UNK         0.0612 
    135 H135       33.5643   -1.0577   -4.9837 H         1 UNK         0.0612 
    136 H136       32.3061    1.1985   -3.1613 H         1 UNK         0.0624 
    137 H137       30.7246    1.3582   -3.8834 H         1 UNK         0.0624 
@<TRIPOS>BOND
     1    1    2 1    
     2    1   72 1    
     3    1   73 1    
     4    1   74 1    
     5    2    3 2    
     6    2    4 am   BACKBONE|DICT|INTERRES
     7    4    5 1    
     8    4   75 1    
     9    5    6 1    
    10    5   35 1    
    11    5   76 1    
    12    6    7 1    
    13    6   77 1    
    14    6   78 1    
    15    7    8 1    
    16    8    9 1    
    17    8   79 1    
    18    8   80 1    
    19    9   10 ar   
    20    9   14 ar   
    21   10   11 ar   
    22   10   81 1    
    23   11   12 ar   
    24   11   71 1    
    25   12   13 ar   
    26   12   82 1    
    27   13   14 ar   
    28   13   15 1    
    29   14   83 1    
    30   15   16 1    
    31   15   84 1    
    32   15   85 1    
    33   16   17 1    
    34   17   18 1    
    35   17   86 1    
    36   17   87 1    
    37   18   19 1    
    38   18   37 1    
    39   18   88 1    
    40   19   20 am   BACKBONE|DICT|INTERRES
    41   19   89 1    
    42   20   21 2    
    43   20   22 1    
    44   22   23 1    
    45   22   24 1    
    46   22   90 1    
    47   23   91 1    
    48   23   92 1    
    49   23   93 1    
    50   24   25 am   BACKBONE|DICT|INTERRES
    51   24   94 1    
    52   25   26 2    
    53   25   27 1    
    54   27   28 1    
    55   27   29 1    
    56   27   95 1    
    57   28   96 1    
    58   28   97 1    
    59   28   98 1    
    60   29   30 am   BACKBONE|DICT|INTERRES
    61   29   99 1    
    62   30   31 2    
    63   30   32 1    
    64   32   33 1    
    65   32   34 1    
    66   32  100 1    
    67   33  101 1    
    68   33  102 1    
    69   33  103 1    
    70   34   35 am   BACKBONE|DICT|INTERRES
    71   34  104 1    
    72   35   36 2    
    73   37   38 2    
    74   37   39 am   BACKBONE|DICT|INTERRES
    75   39   40 1    
    76   39  105 1    
    77   40   41 1    
    78   40   42 1    
    79   40  106 1    
    80   41  107 1    
    81   41  108 1    
    82   41  109 1    
    83   42   43 2    
    84   42   44 am   BACKBONE|DICT|INTERRES
    85   44   45 1    
    86   44  110 1    
    87   45   46 1    
    88   45   47 1    
    89   45  111 1    
    90   46  112 1    
    91   46  113 1    
    92   46  114 1    
    93   47   48 2    
    94   47   49 am   BACKBONE|DICT|INTERRES
    95   49   50 1    
    96   49  115 1    
    97   50   51 1    
    98   50   52 1    
    99   50  116 1    
   100   51  117 1    
   101   51  118 1    
   102   51  119 1    
   103   52   53 2    
   104   52   54 am   BACKBONE|DICT|INTERRES
   105   54   55 1    
   106   54  120 1    
   107   55   56 1    
   108   55   57 1    
   109   55  121 1    
   110   56  122 1    
   111   56  123 1    
   112   56  124 1    
   113   57   58 2    
   114   57   59 am   BACKBONE|DICT|INTERRES
   115   59   60 1    
   116   59  125 1    
   117   60   61 1    
   118   60   62 1    
   119   60  126 1    
   120   61  127 1    
   121   61  128 1    
   122   61  129 1    
   123   62   63 2    
   124   62   64 am   BACKBONE|DICT|INTERRES
   125   64   65 1    
   126   64  130 1    
   127   65   66 1    
   128   65   69 1    
   129   65  131 1    
   130   66   67 am   BACKBONE|DICT|INTERRES
   131   66   68 2    
   132   67  132 1    
   133   67  133 1    
   134   69   70 1    
   135   69  134 1    
   136   69  135 1    
   137   70   71 1    
   138   71  136 1    
   139   71  137 1    
@<TRIPOS>SUBSTRUCTURE
     1 UNK         1 GROUP             0       ****    0 ROOT    
