@<TRIPOS>MOLECULE
3R137
137   139    1
SMALL
USER_CHARGES


@<TRIPOS>ATOM
      1 CA         24.1043   -5.6108   -5.2470 C.3       0 UNK        -0.2020 
      2 C          24.6457   -5.0788   -3.9292 C.2       0 UNK         0.4855 
      3 O          23.8834   -4.5369   -3.1282 O.2       0 UNK        -0.5197 
      4 N          25.9596   -5.2142   -3.7032 N.am      1 UNK        -0.4892 
      5 CA         26.6753   -4.7202   -2.5212 C.3       1 UNK         0.0835 
      6 C6         28.1513   -5.1845   -2.5388 C.3       12 UNK        -0.0855 
      7 S7         28.9686   -4.9745   -0.9216 S.3       12 UNK        -0.2931 
      8 C8         30.7132   -4.7914   -1.4170 C.3       12 UNK         0.0378 
      9 C9         30.9735   -3.5013   -2.1850 C.ar      12 UNK        -0.0802 
     10 C10        31.3975   -3.5436   -3.5167 C.ar      12 UNK        -0.0944 
     11 C11        31.6639   -2.3622   -4.2159 C.ar      12 UNK        -0.0787 
     12 C12        31.5008   -1.1313   -3.5741 C.ar      12 UNK        -0.0862 
     13 C13        31.0713   -1.0738   -2.2431 C.ar      12 UNK        -0.0733 
     14 C14        30.8149   -2.2639   -1.5550 C.ar      12 UNK        -0.0832 
     15 C15        30.8932    0.2606   -1.5243 C.3       12 UNK         0.0240 
     16 S16        30.0348    1.5326   -2.5113 S.3       12 UNK        -0.2522 
     17 C17        28.4789    0.6971   -2.9735 C.3       12 UNK        -0.0967 
     18 CA         28.1859    0.8402   -4.4892 C.3       5 UNK         0.0660 
     19 N          27.4029   -0.2880   -5.0094 N.am      5 UNK        -0.4015 
     20 C          26.9902   -0.4505   -6.2772 C.2       4 UNK         0.4946 
     21 O          27.2289    0.3396   -7.1877 O.2       4 UNK        -0.5353 
     22 CA         26.0936   -1.6634   -6.5637 C.3       4 UNK         0.0277 
     23 CB         26.9094   -2.9644   -6.6540 C.3       4 UNK        -0.1981 
     24 N          25.0540   -1.7797   -5.5407 N.am      4 UNK        -0.4209 
     25 C          23.9526   -1.0137   -5.5050 C.2       3 UNK         0.4942 
     26 O          23.6289   -0.2391   -6.4051 O.2       3 UNK        -0.5208 
     27 CA         23.0736   -1.0977   -4.2448 C.3       3 UNK         0.0250 
     28 CB         21.9002   -2.0664   -4.4608 C.3       3 UNK        -0.1990 
     29 N          23.8266   -1.4846   -3.0477 N.am      3 UNK        -0.4232 
     30 C          24.7043   -0.6808   -2.4266 C.2       2 UNK         0.4993 
     31 O          24.9446    0.4714   -2.7873 O.2       2 UNK        -0.5286 
     32 CA         25.4923   -1.2743   -1.2438 C.3       2 UNK         0.0209 
     33 CB         24.7207   -1.0775    0.0702 C.3       2 UNK        -0.1931 
     34 N          25.8236   -2.6933   -1.4116 N.am      2 UNK        -0.4546 
     35 C          26.5489   -3.1861   -2.4250 C.2       1 UNK         0.5154 
     36 O          27.0430   -2.4827   -3.3077 O.2       1 UNK        -0.5181 
     37 C          27.5450    2.2104   -4.7938 C.2       5 UNK         0.5014 
     38 O          28.2526    3.1353   -5.1941 O.2       5 UNK        -0.5248 
     39 N          26.2130    2.3004   -4.6622 N.am      6 UNK        -0.4434 
     40 CA         25.3993    3.4726   -5.0038 C.3       6 UNK         0.0363 
     41 CB         23.9319    3.1803   -4.6514 C.3       6 UNK        -0.1936 
     42 C          25.5133    3.9372   -6.4712 C.2       6 UNK         0.5081 
     43 O          25.2529    5.1091   -6.7453 O.2       6 UNK        -0.5248 
     44 N          25.9082    3.0342   -7.3781 N.am      7 UNK        -0.4718 
     45 CA         26.1722    3.3080   -8.7921 C.3       7 UNK         0.0273 
     46 CB         25.3158    2.3447   -9.6339 C.3       7 UNK        -0.1935 
     47 C          27.6675    3.1545   -9.1342 C.2       7 UNK         0.5018 
     48 O          28.0082    3.1389  -10.3187 O.2       7 UNK        -0.5186 
     49 N          28.5287    2.9987   -8.1152 N.am      8 UNK        -0.4240 
     50 CA         29.9558    2.6441   -8.1429 C.3       8 UNK         0.0235 
     51 CB         30.7971    3.7003   -8.8845 C.3       8 UNK        -0.2000 
     52 C          30.2348    1.2239   -8.6705 C.2       8 UNK         0.4941 
     53 O          30.9547    0.4682   -8.0149 O.2       8 UNK        -0.5273 
     54 N          29.6565    0.8862   -9.8319 N.am      9 UNK        -0.4262 
     55 CA         29.7435   -0.3935  -10.5387 C.3       9 UNK         0.0264 
     56 CB         28.9495   -1.4752   -9.7696 C.3       9 UNK        -0.1955 
     57 C          31.2075   -0.7681  -10.8417 C.2       9 UNK         0.5031 
     58 O          31.9521    0.0733  -11.3512 O.2       9 UNK        -0.5390 
     59 N          31.6098   -1.9998  -10.5014 N.am      10 UNK        -0.4204 
     60 CA         32.9764   -2.5123  -10.6415 C.3       10 UNK         0.0237 
     61 CB         32.9828   -4.0141  -10.3101 C.3       10 UNK        -0.1985 
     62 C          34.0216   -1.7713   -9.7844 C.2       10 UNK         0.4970 
     63 O          35.2096   -1.8503  -10.1001 O.2       10 UNK        -0.4914 
     64 N          33.5732   -1.0742   -8.7328 N.am      11 UNK        -0.4285 
     65 CA         34.4114   -0.2555   -7.8462 C.3       11 UNK         0.1007 
     66 C          34.5443    1.2220   -8.3192 C.2       11 UNK         0.5703 
     67 N          33.9506    1.6282   -9.4374 N.am      11 UNK        -0.7361 
     68 O          35.2243    2.0143   -7.6714 O.2       11 UNK        -0.4986 
     69 C69        33.9511   -0.3599   -6.3667 C.3       12 UNK        -0.0947 
     70 S70        33.9232   -2.0910   -5.7803 S.3       12 UNK        -0.2240 
     71 C71        32.1361   -2.4196   -5.6607 C.3       12 UNK         0.0194 
     72 H72        23.2669   -6.2836   -5.0637 H         1 UNK         0.0906 
     73 H73        23.7511   -4.7876   -5.8674 H         1 UNK         0.0906 
     74 H74        24.8613   -6.1585   -5.8080 H         1 UNK         0.0906 
     75 H75        26.5357   -5.6543   -4.4065 H         1 UNK         0.3140 
     76 H76        26.1904   -5.1659   -1.6497 H         1 UNK         0.1085 
     77 H77        28.7090   -4.6632   -3.3191 H         1 UNK         0.0836 
     78 H78        28.2067   -6.2453   -2.7884 H         1 UNK         0.0836 
     79 H79        31.0104   -5.6626   -2.0030 H         1 UNK         0.0731 
     80 H80        31.3355   -4.8005   -0.5210 H         1 UNK         0.0731 
     81 H81        31.5288   -4.4979   -4.0082 H         1 UNK         0.1312 
     82 H82        31.7115   -0.2175   -4.1122 H         1 UNK         0.1406 
     83 H83        30.4890   -2.2335   -0.5239 H         1 UNK         0.1631 
     84 H84        31.8767    0.6401   -1.2447 H         1 UNK         0.0717 
     85 H85        30.3394    0.1243   -0.5941 H         1 UNK         0.0717 
     86 H86        28.5543   -0.3569   -2.7060 H         1 UNK         0.0934 
     87 H87        27.6651    1.0918   -2.3620 H         1 UNK         0.0934 
     88 H88        29.1325    0.8001   -5.0334 H         1 UNK         0.0739 
     89 H89        27.1968   -1.0319   -4.3442 H         1 UNK         0.3093 
     90 H90        25.6149   -1.5045   -7.5329 H         1 UNK         0.0818 
     91 H91        27.4623   -3.1748   -5.7392 H         1 UNK         0.0819 
     92 H92        26.2675   -3.8200   -6.8628 H         1 UNK         0.0819 
     93 H93        27.6390   -2.9059   -7.4618 H         1 UNK         0.0819 
     94 H94        25.2749   -2.3454   -4.7329 H         1 UNK         0.3041 
     95 H95        22.6582   -0.1021   -4.0722 H         1 UNK         0.0784 
     96 H96        21.2884   -1.7516   -5.3074 H         1 UNK         0.0793 
     97 H97        22.2408   -3.0806   -4.6678 H         1 UNK         0.0793 
     98 H98        21.2490   -2.1028   -3.5874 H         1 UNK         0.0793 
     99 H99        23.7220   -2.4428   -2.7300 H         1 UNK         0.3024 
    100 H100       26.4327   -0.7245   -1.1719 H         1 UNK         0.1171 
    101 H101       25.3078   -1.4049    0.9284 H         1 UNK         0.0786 
    102 H102       24.4808   -0.0247    0.2272 H         1 UNK         0.0786 
    103 H103       23.7804   -1.6303    0.0744 H         1 UNK         0.0786 
    104 H104       25.4209   -3.3350   -0.7433 H         1 UNK         0.2977 
    105 H105       25.7190    1.5165   -4.2425 H         1 UNK         0.3127 
    106 H106       25.7444    4.2982   -4.3782 H         1 UNK         0.0770 
    107 H107       23.5415    2.3396   -5.2262 H         1 UNK         0.0814 
    108 H108       23.2985    4.0430   -4.8625 H         1 UNK         0.0814 
    109 H109       23.8159    2.9456   -3.5931 H         1 UNK         0.0814 
    110 H110       26.1322    2.0920   -7.0712 H         1 UNK         0.2983 
    111 H111       25.8922    4.3321   -9.0472 H         1 UNK         0.0947 
    112 H112       25.4328    2.5400  -10.7006 H         1 UNK         0.0806 
    113 H113       24.2560    2.4509   -9.4016 H         1 UNK         0.0806 
    114 H114       25.5942    1.3044   -9.4581 H         1 UNK         0.0806 
    115 H115       28.1387    3.0298   -7.1782 H         1 UNK         0.3000 
    116 H116       30.2734    2.6515   -7.0989 H         1 UNK         0.0850 
    117 H117       31.8610    3.4873   -8.7788 H         1 UNK         0.0810 
    118 H118       30.6254    4.6979   -8.4806 H         1 UNK         0.0810 
    119 H119       30.5774    3.7271   -9.9520 H         1 UNK         0.0810 
    120 H120       29.0964    1.6078  -10.2795 H         1 UNK         0.3040 
    121 H121       29.2593   -0.2462  -11.5048 H         1 UNK         0.0766 
    122 H122       27.9241   -1.1487   -9.5938 H         1 UNK         0.0812 
    123 H123       29.3896   -1.6910   -8.7950 H         1 UNK         0.0812 
    124 H124       28.8906   -2.4078  -10.3320 H         1 UNK         0.0812 
    125 H125       30.9339   -2.6212  -10.0814 H         1 UNK         0.3205 
    126 H126       33.2703   -2.3891  -11.6860 H         1 UNK         0.0754 
    127 H127       33.9796   -4.4385  -10.4397 H         1 UNK         0.0769 
    128 H128       32.3103   -4.5695  -10.9642 H         1 UNK         0.0769 
    129 H129       32.6818   -4.2008   -9.2782 H         1 UNK         0.0769 
    130 H130       32.5772   -0.9985   -8.5714 H         1 UNK         0.2981 
    131 H131       35.4284   -0.6502   -7.8795 H         1 UNK         0.0541 
    132 H132       34.0695    2.5826   -9.7354 H         1 UNK         0.3459 
    133 H133       33.3818    0.9954   -9.9855 H         1 UNK         0.3459 
    134 H134       32.9721    0.1018   -6.2325 H         1 UNK         0.0612 
    135 H135       34.6337    0.1908   -5.7175 H         1 UNK         0.0612 
    136 H136       31.5672   -1.7155   -6.2697 H         1 UNK         0.0624 
    137 H137       31.9401   -3.4059   -6.0839 H         1 UNK         0.0624 
@<TRIPOS>BOND
     1    1    2 1    
     2    1   72 1    
     3    1   73 1    
     4    1   74 1    
     5    2    3 2    
     6    2    4 am   BACKBONE|DICT|INTERRES
     7    4    5 1    
     8    4   75 1    
     9    5    6 1    
    10    5   35 1    
    11    5   76 1    
    12    6    7 1    
    13    6   77 1    
    14    6   78 1    
    15    7    8 1    
    16    8    9 1    
    17    8   79 1    
    18    8   80 1    
    19    9   10 ar   
    20    9   14 ar   
    21   10   11 ar   
    22   10   81 1    
    23   11   12 ar   
    24   11   71 1    
    25   12   13 ar   
    26   12   82 1    
    27   13   14 ar   
    28   13   15 1    
    29   14   83 1    
    30   15   16 1    
    31   15   84 1    
    32   15   85 1    
    33   16   17 1    
    34   17   18 1    
    35   17   86 1    
    36   17   87 1    
    37   18   19 1    
    38   18   37 1    
    39   18   88 1    
    40   19   20 am   BACKBONE|DICT|INTERRES
    41   19   89 1    
    42   20   21 2    
    43   20   22 1    
    44   22   23 1    
    45   22   24 1    
    46   22   90 1    
    47   23   91 1    
    48   23   92 1    
    49   23   93 1    
    50   24   25 am   BACKBONE|DICT|INTERRES
    51   24   94 1    
    52   25   26 2    
    53   25   27 1    
    54   27   28 1    
    55   27   29 1    
    56   27   95 1    
    57   28   96 1    
    58   28   97 1    
    59   28   98 1    
    60   29   30 am   BACKBONE|DICT|INTERRES
    61   29   99 1    
    62   30   31 2    
    63   30   32 1    
    64   32   33 1    
    65   32   34 1    
    66   32  100 1    
    67   33  101 1    
    68   33  102 1    
    69   33  103 1    
    70   34   35 am   BACKBONE|DICT|INTERRES
    71   34  104 1    
    72   35   36 2    
    73   37   38 2    
    74   37   39 am   BACKBONE|DICT|INTERRES
    75   39   40 1    
    76   39  105 1    
    77   40   41 1    
    78   40   42 1    
    79   40  106 1    
    80   41  107 1    
    81   41  108 1    
    82   41  109 1    
    83   42   43 2    
    84   42   44 am   BACKBONE|DICT|INTERRES
    85   44   45 1    
    86   44  110 1    
    87   45   46 1    
    88   45   47 1    
    89   45  111 1    
    90   46  112 1    
    91   46  113 1    
    92   46  114 1    
    93   47   48 2    
    94   47   49 am   BACKBONE|DICT|INTERRES
    95   49   50 1    
    96   49  115 1    
    97   50   51 1    
    98   50   52 1    
    99   50  116 1    
   100   51  117 1    
   101   51  118 1    
   102   51  119 1    
   103   52   53 2    
   104   52   54 am   BACKBONE|DICT|INTERRES
   105   54   55 1    
   106   54  120 1    
   107   55   56 1    
   108   55   57 1    
   109   55  121 1    
   110   56  122 1    
   111   56  123 1    
   112   56  124 1    
   113   57   58 2    
   114   57   59 am   BACKBONE|DICT|INTERRES
   115   59   60 1    
   116   59  125 1    
   117   60   61 1    
   118   60   62 1    
   119   60  126 1    
   120   61  127 1    
   121   61  128 1    
   122   61  129 1    
   123   62   63 2    
   124   62   64 am   BACKBONE|DICT|INTERRES
   125   64   65 1    
   126   64  130 1    
   127   65   66 1    
   128   65   69 1    
   129   65  131 1    
   130   66   67 am   BACKBONE|DICT|INTERRES
   131   66   68 2    
   132   67  132 1    
   133   67  133 1    
   134   69   70 1    
   135   69  134 1    
   136   69  135 1    
   137   70   71 1    
   138   71  136 1    
   139   71  137 1    
@<TRIPOS>SUBSTRUCTURE
     1 UNK         1 GROUP             0       ****    0 ROOT    
