@<TRIPOS>MOLECULE
3R137
137   139    1
SMALL
USER_CHARGES


@<TRIPOS>ATOM
      1 CA         24.1003   -5.7169   -4.3500 C.3       0 UNK        -0.2020 
      2 C          24.6911   -4.9619   -3.1693 C.2       0 UNK         0.4855 
      3 O          23.9644   -4.2645   -2.4610 O.2       0 UNK        -0.5197 
      4 N          26.0084   -5.0889   -2.9631 N.am      1 UNK        -0.4892 
      5 CA         26.7917   -4.4422   -1.9036 C.3       1 UNK         0.0835 
      6 C6         28.2594   -4.9279   -1.9615 C.3       12 UNK        -0.0855 
      7 S7         29.2515   -4.4136   -0.5203 S.3       12 UNK        -0.2931 
      8 C8         30.8965   -4.2162   -1.2785 C.3       12 UNK         0.0378 
      9 C9         30.9755   -3.0019   -2.1950 C.ar      12 UNK        -0.0802 
     10 C10        31.0259   -3.1598   -3.5836 C.ar      12 UNK        -0.0944 
     11 C11        31.1475   -2.0466   -4.4208 C.ar      12 UNK        -0.0787 
     12 C12        31.2322   -0.7699   -3.8598 C.ar      12 UNK        -0.0862 
     13 C13        31.1304   -0.5930   -2.4753 C.ar      12 UNK        -0.0733 
     14 C14        31.0169   -1.7160   -1.6496 C.ar      12 UNK        -0.0832 
     15 C15        31.1286    0.8001   -1.8504 C.3       12 UNK         0.0240 
     16 S16        30.0826    2.0236   -2.7190 S.3       12 UNK        -0.2522 
     17 C17        28.5219    1.1217   -3.0258 C.3       12 UNK        -0.0967 
     18 CA         28.2701    0.9579   -4.5485 C.3       5 UNK         0.0660 
     19 N          27.6013   -0.3011   -4.8829 N.am      5 UNK        -0.4015 
     20 C          27.4177   -0.7588   -6.1296 C.2       4 UNK         0.4946 
     21 O          27.8885   -0.2195   -7.1315 O.2       4 UNK        -0.5353 
     22 CA         26.5065   -1.9855   -6.2961 C.3       4 UNK         0.0277 
     23 CB         27.3014   -3.2939   -6.1602 C.3       4 UNK        -0.1981 
     24 N          25.3937   -1.9618   -5.3417 N.am      4 UNK        -0.4209 
     25 C          24.3520   -1.1203   -5.4324 C.2       3 UNK         0.4942 
     26 O          24.1852   -0.3480   -6.3738 O.2       3 UNK        -0.5208 
     27 CA         23.3591   -1.0843   -4.2590 C.3       3 UNK         0.0250 
     28 CB         22.2200   -2.0932   -4.4691 C.3       3 UNK        -0.1990 
     29 N          24.0110   -1.3145   -2.9676 N.am      3 UNK        -0.4232 
     30 C          24.8352   -0.4280   -2.3871 C.2       2 UNK         0.4993 
     31 O          25.0768    0.6833   -2.8581 O.2       2 UNK        -0.5286 
     32 CA         25.5627   -0.8706   -1.1040 C.3       2 UNK         0.0209 
     33 CB         24.7261   -0.5232    0.1370 C.3       2 UNK        -0.1931 
     34 N          25.9004   -2.2980   -1.0852 N.am      2 UNK        -0.4546 
     35 C          26.6745   -2.9057   -1.9952 C.2       1 UNK         0.5154 
     36 O          27.2169   -2.3084   -2.9257 O.2       1 UNK        -0.5181 
     37 C          27.5459    2.1827   -5.1474 C.2       5 UNK         0.5014 
     38 O          28.2068    3.0921   -5.6467 O.2       5 UNK        -0.5248 
     39 N          26.2066    2.1766   -5.1146 N.am      6 UNK        -0.4434 
     40 CA         25.3695    3.1927   -5.7508 C.3       6 UNK         0.0363 
     41 CB         23.9310    3.0847   -5.2186 C.3       6 UNK        -0.1936 
     42 C          25.3954    3.1101   -7.2884 C.2       6 UNK         0.5081 
     43 O          25.5611    4.1402   -7.9425 O.2       6 UNK        -0.5248 
     44 N          25.1973    1.9036   -7.8381 N.am      7 UNK        -0.4718 
     45 CA         25.0384    1.6736   -9.2759 C.3       7 UNK         0.0273 
     46 CB         24.3270    0.3305   -9.5095 C.3       7 UNK        -0.1935 
     47 C          26.3526    1.7288  -10.0695 C.2       7 UNK         0.5018 
     48 O          26.4026    2.4117  -11.0937 O.2       7 UNK        -0.5186 
     49 N          27.3690    0.9829   -9.6185 N.am      8 UNK        -0.4240 
     50 CA         28.6407    0.8084  -10.3241 C.3       8 UNK         0.0235 
     51 CB         29.0225   -0.6828  -10.3401 C.3       8 UNK        -0.2000 
     52 C          29.7608    1.6348   -9.6859 C.2       8 UNK         0.4941 
     53 O          30.5359    2.2542  -10.4168 O.2       8 UNK        -0.5273 
     54 N          29.8380    1.6172   -8.3464 N.am      9 UNK        -0.4262 
     55 CA         30.8576    2.2458   -7.4939 C.3       9 UNK         0.0264 
     56 CB         30.8686    3.7823   -7.6423 C.3       9 UNK        -0.1955 
     57 C          32.2581    1.6428   -7.6869 C.2       9 UNK         0.5031 
     58 O          32.7663    0.9794   -6.7828 O.2       9 UNK        -0.5390 
     59 N          32.8477    1.8570   -8.8676 N.am      10 UNK        -0.4204 
     60 CA         34.1600    1.3586   -9.2764 C.3       10 UNK         0.0237 
     61 CB         34.7572    2.3286  -10.3134 C.3       10 UNK        -0.1985 
     62 C          34.0600   -0.0862   -9.7984 C.2       10 UNK         0.4970 
     63 O          34.3897   -0.3511  -10.9560 O.2       10 UNK        -0.4914 
     64 N          33.5860   -0.9925   -8.9367 N.am      11 UNK        -0.4285 
     65 CA         33.4401   -2.4287   -9.2187 C.3       11 UNK         0.1007 
     66 C          34.7718   -3.2371   -9.2516 C.2       11 UNK         0.5703 
     67 N          35.9018   -2.6811   -8.8297 N.am      11 UNK        -0.7361 
     68 O          34.7807   -4.3870   -9.6850 O.2       11 UNK        -0.4986 
     69 C69        32.3752   -3.0846   -8.3014 C.3       12 UNK        -0.0947 
     70 S70        32.7298   -2.9068   -6.5181 S.3       12 UNK        -0.2240 
     71 C71        31.1537   -2.2224   -5.9305 C.3       12 UNK         0.0194 
     72 H72        23.1377   -6.1489   -4.0776 H         1 UNK         0.0906 
     73 H73        23.9465   -5.0423   -5.1916 H         1 UNK         0.0906 
     74 H74        24.7508   -6.5277   -4.6774 H         1 UNK         0.0906 
     75 H75        26.5418   -5.6685   -3.5955 H         1 UNK         0.3140 
     76 H76        26.3684   -4.7647   -0.9498 H         1 UNK         0.1085 
     77 H77        28.7305   -4.5897   -2.8853 H         1 UNK         0.0836 
     78 H78        28.2885   -6.0183   -1.9950 H         1 UNK         0.0836 
     79 H79        31.1574   -5.1281   -1.8181 H         1 UNK         0.0731 
     80 H80        31.6379   -4.1124   -0.4848 H         1 UNK         0.0731 
     81 H81        30.9768   -4.1492   -4.0173 H         1 UNK         0.1312 
     82 H82        31.3437    0.0909   -4.5046 H         1 UNK         0.1406 
     83 H83        30.9553   -1.5945   -0.5764 H         1 UNK         0.1631 
     84 H84        32.1530    1.1731   -1.8213 H         1 UNK         0.0717 
     85 H85        30.7903    0.7498   -0.8142 H         1 UNK         0.0717 
     86 H86        28.5724    0.1472   -2.5387 H         1 UNK         0.0934 
     87 H87        27.7008    1.6450   -2.5316 H         1 UNK         0.0934 
     88 H88        29.2348    0.8938   -5.0500 H         1 UNK         0.0739 
     89 H89        27.2780   -0.8748   -4.1076 H         1 UNK         0.3093 
     90 H90        26.0886   -1.9525   -7.3046 H         1 UNK         0.0818 
     91 H91        28.0518   -3.3686   -6.9479 H         1 UNK         0.0819 
     92 H92        27.8258   -3.3625   -5.2070 H         1 UNK         0.0819 
     93 H93        26.6525   -4.1648   -6.2514 H         1 UNK         0.0819 
     94 H94        25.5060   -2.5087   -4.5000 H         1 UNK         0.3041 
     95 H95        22.9164   -0.0860   -4.2368 H         1 UNK         0.0784 
     96 H96        21.6894   -1.8900   -5.4004 H         1 UNK         0.0793 
     97 H97        22.5852   -3.1178   -4.5220 H         1 UNK         0.0793 
     98 H98        21.4892   -2.0397   -3.6620 H         1 UNK         0.0793 
     99 H99        23.8923   -2.2317   -2.5465 H         1 UNK         0.3024 
    100 H100       26.4988   -0.3105   -1.0539 H         1 UNK         0.1171 
    101 H101       25.2691   -0.7433    1.0564 H         1 UNK         0.0786 
    102 H102       24.4793    0.5395    0.1554 H         1 UNK         0.0786 
    103 H103       23.7865   -1.0768    0.1595 H         1 UNK         0.0786 
    104 H104       25.4499   -2.8605   -0.3773 H         1 UNK         0.2977 
    105 H105       25.7336    1.4426   -4.5961 H         1 UNK         0.3127 
    106 H106       25.7568    4.1733   -5.4654 H         1 UNK         0.0770 
    107 H107       23.4777    2.1238   -5.4625 H         1 UNK         0.0814 
    108 H108       23.2979    3.8618   -5.6486 H         1 UNK         0.0814 
    109 H109       23.8997    3.2022   -4.1351 H         1 UNK         0.0814 
    110 H110       25.0129    1.1093   -7.2290 H         1 UNK         0.2983 
    111 H111       24.3897    2.4592   -9.6705 H         1 UNK         0.0947 
    112 H112       24.8995   -0.5068   -9.1088 H         1 UNK         0.0806 
    113 H113       24.1782    0.1454  -10.5742 H         1 UNK         0.0806 
    114 H114       23.3441    0.3166   -9.0382 H         1 UNK         0.0806 
    115 H115       27.2791    0.5020   -8.7263 H         1 UNK         0.3000 
    116 H116       28.5432    1.1336  -11.3623 H         1 UNK         0.0850 
    117 H117       29.9618   -0.8387  -10.8727 H         1 UNK         0.0810 
    118 H118       28.2618   -1.2789  -10.8442 H         1 UNK         0.0810 
    119 H119       29.1494   -1.0859   -9.3348 H         1 UNK         0.0810 
    120 H120       29.1579    1.0428   -7.8539 H         1 UNK         0.3040 
    121 H121       30.5702    2.0285   -6.4663 H         1 UNK         0.0766 
    122 H122       29.8847    4.2038   -7.4371 H         1 UNK         0.0812 
    123 H123       31.1641    4.1072   -8.6398 H         1 UNK         0.0812 
    124 H124       31.5659    4.2332   -6.9354 H         1 UNK         0.0812 
    125 H125       32.2733    2.2897   -9.5874 H         1 UNK         0.3205 
    126 H126       34.8245    1.3470   -8.4098 H         1 UNK         0.0754 
    127 H127       35.7512    2.0054  -10.6254 H         1 UNK         0.0769 
    128 H128       34.8593    3.3331   -9.9022 H         1 UNK         0.0769 
    129 H129       34.1375    2.3950  -11.2088 H         1 UNK         0.0769 
    130 H130       33.3389   -0.6892   -8.0013 H         1 UNK         0.2981 
    131 H131       33.0484   -2.5052  -10.2349 H         1 UNK         0.0541 
    132 H132       36.7566   -3.2138   -8.8631 H         1 UNK         0.3459 
    133 H133       35.9047   -1.7427   -8.4650 H         1 UNK         0.3459 
    134 H134       31.4016   -2.6427   -8.5195 H         1 UNK         0.0612 
    135 H135       32.2675   -4.1468   -8.5278 H         1 UNK         0.0612 
    136 H136       30.9616   -1.2716   -6.4312 H         1 UNK         0.0624 
    137 H137       30.3432   -2.8932   -6.2167 H         1 UNK         0.0624 
@<TRIPOS>BOND
     1    1    2 1    
     2    1   72 1    
     3    1   73 1    
     4    1   74 1    
     5    2    3 2    
     6    2    4 am   BACKBONE|DICT|INTERRES
     7    4    5 1    
     8    4   75 1    
     9    5    6 1    
    10    5   35 1    
    11    5   76 1    
    12    6    7 1    
    13    6   77 1    
    14    6   78 1    
    15    7    8 1    
    16    8    9 1    
    17    8   79 1    
    18    8   80 1    
    19    9   10 ar   
    20    9   14 ar   
    21   10   11 ar   
    22   10   81 1    
    23   11   12 ar   
    24   11   71 1    
    25   12   13 ar   
    26   12   82 1    
    27   13   14 ar   
    28   13   15 1    
    29   14   83 1    
    30   15   16 1    
    31   15   84 1    
    32   15   85 1    
    33   16   17 1    
    34   17   18 1    
    35   17   86 1    
    36   17   87 1    
    37   18   19 1    
    38   18   37 1    
    39   18   88 1    
    40   19   20 am   BACKBONE|DICT|INTERRES
    41   19   89 1    
    42   20   21 2    
    43   20   22 1    
    44   22   23 1    
    45   22   24 1    
    46   22   90 1    
    47   23   91 1    
    48   23   92 1    
    49   23   93 1    
    50   24   25 am   BACKBONE|DICT|INTERRES
    51   24   94 1    
    52   25   26 2    
    53   25   27 1    
    54   27   28 1    
    55   27   29 1    
    56   27   95 1    
    57   28   96 1    
    58   28   97 1    
    59   28   98 1    
    60   29   30 am   BACKBONE|DICT|INTERRES
    61   29   99 1    
    62   30   31 2    
    63   30   32 1    
    64   32   33 1    
    65   32   34 1    
    66   32  100 1    
    67   33  101 1    
    68   33  102 1    
    69   33  103 1    
    70   34   35 am   BACKBONE|DICT|INTERRES
    71   34  104 1    
    72   35   36 2    
    73   37   38 2    
    74   37   39 am   BACKBONE|DICT|INTERRES
    75   39   40 1    
    76   39  105 1    
    77   40   41 1    
    78   40   42 1    
    79   40  106 1    
    80   41  107 1    
    81   41  108 1    
    82   41  109 1    
    83   42   43 2    
    84   42   44 am   BACKBONE|DICT|INTERRES
    85   44   45 1    
    86   44  110 1    
    87   45   46 1    
    88   45   47 1    
    89   45  111 1    
    90   46  112 1    
    91   46  113 1    
    92   46  114 1    
    93   47   48 2    
    94   47   49 am   BACKBONE|DICT|INTERRES
    95   49   50 1    
    96   49  115 1    
    97   50   51 1    
    98   50   52 1    
    99   50  116 1    
   100   51  117 1    
   101   51  118 1    
   102   51  119 1    
   103   52   53 2    
   104   52   54 am   BACKBONE|DICT|INTERRES
   105   54   55 1    
   106   54  120 1    
   107   55   56 1    
   108   55   57 1    
   109   55  121 1    
   110   56  122 1    
   111   56  123 1    
   112   56  124 1    
   113   57   58 2    
   114   57   59 am   BACKBONE|DICT|INTERRES
   115   59   60 1    
   116   59  125 1    
   117   60   61 1    
   118   60   62 1    
   119   60  126 1    
   120   61  127 1    
   121   61  128 1    
   122   61  129 1    
   123   62   63 2    
   124   62   64 am   BACKBONE|DICT|INTERRES
   125   64   65 1    
   126   64  130 1    
   127   65   66 1    
   128   65   69 1    
   129   65  131 1    
   130   66   67 am   BACKBONE|DICT|INTERRES
   131   66   68 2    
   132   67  132 1    
   133   67  133 1    
   134   69   70 1    
   135   69  134 1    
   136   69  135 1    
   137   70   71 1    
   138   71  136 1    
   139   71  137 1    
@<TRIPOS>SUBSTRUCTURE
     1 UNK         1 GROUP             0       ****    0 ROOT    
