@<TRIPOS>MOLECULE
3R137
137   139    1
SMALL
USER_CHARGES


@<TRIPOS>ATOM
      1 CA         26.6024   -6.7461   -4.0385 C.3       0 UNK        -0.2020 
      2 C          26.2308   -5.8603   -2.8588 C.2       0 UNK         0.4855 
      3 O          25.1894   -6.0765   -2.2380 O.2       0 UNK        -0.5197 
      4 N          27.0764   -4.8719   -2.5404 N.am      1 UNK        -0.4892 
      5 CA         26.8427   -3.8869   -1.4783 C.3       1 UNK         0.0835 
      6 C6         28.1409   -3.1465   -1.0644 C.3       12 UNK        -0.0855 
      7 S7         29.4003   -4.2917   -0.4000 S.3       12 UNK        -0.2931 
      8 C8         30.9657   -3.4809   -0.8865 C.3       12 UNK         0.0378 
      9 C9         31.0970   -3.2349   -2.3874 C.ar      12 UNK        -0.0802 
     10 C10        31.6595   -2.0395   -2.8479 C.ar      12 UNK        -0.0944 
     11 C11        31.7541   -1.7775   -4.2183 C.ar      12 UNK        -0.0787 
     12 C12        31.2681   -2.7191   -5.1288 C.ar      12 UNK        -0.0862 
     13 C13        30.7077   -3.9187   -4.6847 C.ar      12 UNK        -0.0733 
     14 C14        30.6508   -4.1823   -3.3150 C.ar      12 UNK        -0.0832 
     15 C15        30.1453   -4.9271   -5.6760 C.3       12 UNK         0.0240 
     16 S16        28.8720   -4.2268   -6.7803 S.3       12 UNK        -0.2522 
     17 C17        27.7171   -3.3527   -5.6601 C.3       12 UNK        -0.0967 
     18 CA         27.1553   -2.0772   -6.3351 C.3       5 UNK         0.0660 
     19 N          25.7922   -1.7508   -5.8985 N.am      5 UNK        -0.4015 
     20 C          24.9825   -0.9505   -6.6098 C.2       4 UNK         0.4946 
     21 O          25.3312   -0.3813   -7.6458 O.2       4 UNK        -0.5353 
     22 CA         23.5598   -0.7300   -6.0789 C.3       4 UNK         0.0277 
     23 CB         22.8069   -2.0619   -5.9103 C.3       4 UNK        -0.1981 
     24 N          23.5274    0.0138   -4.8215 N.am      4 UNK        -0.4209 
     25 C          23.9714    1.2655   -4.6246 C.2       3 UNK         0.4942 
     26 O          24.5000    1.9532   -5.4947 O.2       3 UNK        -0.5208 
     27 CA         23.7818    1.8613   -3.2159 C.3       3 UNK         0.0250 
     28 CB         22.5787    2.8182   -3.1944 C.3       3 UNK        -0.1990 
     29 N          23.5944    0.8267   -2.1959 N.am      3 UNK        -0.4232 
     30 C          24.5788    0.0373   -1.7481 C.2       2 UNK         0.4993 
     31 O          25.7700    0.2362   -1.9988 O.2       2 UNK        -0.5286 
     32 CA         24.1528   -1.1797   -0.9002 C.3       2 UNK         0.0209 
     33 CB         22.8082   -1.7963   -1.3530 C.3       2 UNK        -0.1931 
     34 N          25.1821   -2.2250   -0.8464 N.am      2 UNK        -0.4546 
     35 C          25.7467   -2.8761   -1.8764 C.2       1 UNK         0.5154 
     36 O          25.4644   -2.6904   -3.0683 O.2       1 UNK        -0.5181 
     37 C          28.1026   -0.8625   -6.2364 C.2       5 UNK         0.5014 
     38 O          28.9968   -0.7253   -7.0709 O.2       5 UNK        -0.5248 
     39 N          27.8350    0.0408   -5.2805 N.am      6 UNK        -0.4434 
     40 CA         28.5136    1.3308   -5.1350 C.3       6 UNK         0.0363 
     41 CB         28.0723    1.9883   -3.8190 C.3       6 UNK        -0.1936 
     42 C          28.2986    2.2950   -6.3192 C.2       6 UNK         0.5081 
     43 O          29.1286    3.1830   -6.5137 O.2       6 UNK        -0.5248 
     44 N          27.2112    2.1206   -7.0826 N.am      7 UNK        -0.4718 
     45 CA         26.9470    2.8588   -8.3178 C.3       7 UNK         0.0273 
     46 CB         25.4445    3.1669   -8.4198 C.3       7 UNK        -0.1935 
     47 C          27.4182    2.0805   -9.5557 C.2       7 UNK         0.5018 
     48 O          27.9180    2.7012  -10.4948 O.2       7 UNK        -0.5186 
     49 N          27.2202    0.7536   -9.5593 N.am      8 UNK        -0.4240 
     50 CA         27.5181   -0.1195  -10.6975 C.3       8 UNK         0.0235 
     51 CB         26.8083   -1.4706  -10.5142 C.3       8 UNK        -0.2000 
     52 C          29.0203   -0.3329  -10.9475 C.2       8 UNK         0.4941 
     53 O          29.4341   -0.3473  -12.1086 O.2       8 UNK        -0.5273 
     54 N          29.8032   -0.5257   -9.8782 N.am      9 UNK        -0.4262 
     55 CA         31.2471   -0.7594   -9.9528 C.3       9 UNK         0.0264 
     56 CB         31.6790   -1.5554   -8.7129 C.3       9 UNK        -0.1955 
     57 C          32.0317    0.5585  -10.0294 C.2       9 UNK         0.5031 
     58 O          31.4911    1.6244   -9.7270 O.2       9 UNK        -0.5390 
     59 N          33.3261    0.4542  -10.3637 N.am      10 UNK        -0.4204 
     60 CA         34.2799    1.5718  -10.3863 C.3       10 UNK         0.0237 
     61 CB         35.6275    1.0825  -10.9414 C.3       10 UNK        -0.1985 
     62 C          34.4748    2.2521   -9.0165 C.2       10 UNK         0.4970 
     63 O          34.7384    3.4543   -8.9745 O.2       10 UNK        -0.4914 
     64 N          34.3158    1.4820   -7.9321 N.am      11 UNK        -0.4285 
     65 CA         34.2386    1.9751   -6.5494 C.3       11 UNK         0.1007 
     66 C          32.8739    2.6213   -6.1630 C.2       11 UNK         0.5703 
     67 N          31.8652    2.6285   -7.0247 N.am      11 UNK        -0.7361 
     68 O          32.7309    3.1289   -5.0534 O.2       11 UNK        -0.4986 
     69 C69        34.6946    0.8976   -5.5258 C.3       12 UNK        -0.0947 
     70 S70        33.8706   -0.7272   -5.6777 S.3       12 UNK        -0.2240 
     71 C71        32.3483   -0.4662   -4.7128 C.3       12 UNK         0.0194 
     72 H72        26.6780   -7.7851   -3.7189 H         1 UNK         0.0906 
     73 H73        25.8361   -6.6818   -4.8106 H         1 UNK         0.0906 
     74 H74        27.5538   -6.4591   -4.4830 H         1 UNK         0.0906 
     75 H75        27.9174   -4.7363   -3.0783 H         1 UNK         0.3140 
     76 H76        26.4739   -4.4319   -0.6059 H         1 UNK         0.1085 
     77 H77        28.5408   -2.5878   -1.9122 H         1 UNK         0.0836 
     78 H78        27.9387   -2.4053   -0.2887 H         1 UNK         0.0836 
     79 H79        31.0467   -2.5408   -0.3383 H         1 UNK         0.0731 
     80 H80        31.8002   -4.1027   -0.5600 H         1 UNK         0.0731 
     81 H81        32.0159   -1.3062   -2.1373 H         1 UNK         0.1312 
     82 H82        31.3131   -2.5156   -6.1869 H         1 UNK         0.1406 
     83 H83        30.2345   -5.1171   -2.9655 H         1 UNK         0.1631 
     84 H84        29.7238   -5.7888   -5.1582 H         1 UNK         0.0717 
     85 H85        30.9626   -5.3115   -6.2875 H         1 UNK         0.0717 
     86 H86        26.9052   -4.0473   -5.4409 H         1 UNK         0.0934 
     87 H87        28.1786   -3.1159   -4.7010 H         1 UNK         0.0934 
     88 H88        27.0671   -2.2990   -7.3999 H         1 UNK         0.0739 
     89 H89        25.4804   -2.1422   -5.0131 H         1 UNK         0.3093 
     90 H90        23.0268   -0.1351   -6.8238 H         1 UNK         0.0818 
     91 H91        21.7555   -1.8936   -5.6764 H         1 UNK         0.0819 
     92 H92        22.8403   -2.6486   -6.8296 H         1 UNK         0.0819 
     93 H93        23.2300   -2.6769   -5.1147 H         1 UNK         0.0819 
     94 H94        23.1209   -0.4650   -4.0332 H         1 UNK         0.3041 
     95 H95        24.6787    2.4356   -2.9744 H         1 UNK         0.0784 
     96 H96        22.7043    3.6170   -3.9270 H         1 UNK         0.0793 
     97 H97        21.6463    2.3039   -3.4306 H         1 UNK         0.0793 
     98 H98        22.4651    3.2914   -2.2188 H         1 UNK         0.0793 
     99 H99        22.6447    0.6347   -1.9103 H         1 UNK         0.3024 
    100 H100       24.0313   -0.8109    0.1198 H         1 UNK         0.1171 
    101 H101       21.9774   -1.1025   -1.2226 H         1 UNK         0.0786 
    102 H102       22.5672   -2.6817   -0.7642 H         1 UNK         0.0786 
    103 H103       22.8304   -2.0983   -2.4007 H         1 UNK         0.0786 
    104 H104       25.5237   -2.4321    0.0819 H         1 UNK         0.2977 
    105 H105       27.0744   -0.1432   -4.6411 H         1 UNK         0.3127 
    106 H106       29.5848    1.1343   -5.0729 H         1 UNK         0.0770 
    107 H107       27.0044    2.2079   -3.8191 H         1 UNK         0.0814 
    108 H108       28.5992    2.9296   -3.6576 H         1 UNK         0.0814 
    109 H109       28.2834    1.3477   -2.9624 H         1 UNK         0.0814 
    110 H110       26.5437    1.4001   -6.8354 H         1 UNK         0.2983 
    111 H111       27.4809    3.8117   -8.3042 H         1 UNK         0.0947 
    112 H112       25.2176    3.7137   -9.3359 H         1 UNK         0.0806 
    113 H113       25.1112    3.7814   -7.5834 H         1 UNK         0.0806 
    114 H114       24.8430    2.2569   -8.4227 H         1 UNK         0.0806 
    115 H115       26.7341    0.3318   -8.7728 H         1 UNK         0.3000 
    116 H116       27.1029    0.3537  -11.5901 H         1 UNK         0.0850 
    117 H117       26.9356   -2.0986  -11.3969 H         1 UNK         0.0810 
    118 H118       25.7369   -1.3416  -10.3590 H         1 UNK         0.0810 
    119 H119       27.2078   -2.0233   -9.6646 H         1 UNK         0.0810 
    120 H120       29.4035   -0.4704   -8.9440 H         1 UNK         0.3040 
    121 H121       31.4698   -1.3522  -10.8427 H         1 UNK         0.0766 
    122 H122       32.7223   -1.8659   -8.7765 H         1 UNK         0.0812 
    123 H123       31.0794   -2.4581   -8.5926 H         1 UNK         0.0812 
    124 H124       31.5710   -0.9555   -7.8086 H         1 UNK         0.0812 
    125 H125       33.6943   -0.4571  -10.5976 H         1 UNK         0.3205 
    126 H126       33.8829    2.3268  -11.0681 H         1 UNK         0.0754 
    127 H127       36.3480    1.9003  -10.9932 H         1 UNK         0.0769 
    128 H128       35.5210    0.6844  -11.9507 H         1 UNK         0.0769 
    129 H129       36.0644    0.3031  -10.3156 H         1 UNK         0.0769 
    130 H130       34.1041    0.5037   -8.0555 H         1 UNK         0.2981 
    131 H131       34.9572    2.7924   -6.4643 H         1 UNK         0.0541 
    132 H132       30.9703    3.0200   -6.7457 H         1 UNK         0.3459 
    133 H133       31.9503    2.2386   -7.9574 H         1 UNK         0.3459 
    134 H134       34.6016    1.2597   -4.5004 H         1 UNK         0.0612 
    135 H135       35.7616    0.7181   -5.6645 H         1 UNK         0.0612 
    136 H136       32.5538    0.1998   -3.8736 H         1 UNK         0.0624 
    137 H137       31.6170    0.0397   -5.3430 H         1 UNK         0.0624 
@<TRIPOS>BOND
     1    1    2 1    
     2    1   72 1    
     3    1   73 1    
     4    1   74 1    
     5    2    3 2    
     6    2    4 am   BACKBONE|DICT|INTERRES
     7    4    5 1    
     8    4   75 1    
     9    5    6 1    
    10    5   35 1    
    11    5   76 1    
    12    6    7 1    
    13    6   77 1    
    14    6   78 1    
    15    7    8 1    
    16    8    9 1    
    17    8   79 1    
    18    8   80 1    
    19    9   10 ar   
    20    9   14 ar   
    21   10   11 ar   
    22   10   81 1    
    23   11   12 ar   
    24   11   71 1    
    25   12   13 ar   
    26   12   82 1    
    27   13   14 ar   
    28   13   15 1    
    29   14   83 1    
    30   15   16 1    
    31   15   84 1    
    32   15   85 1    
    33   16   17 1    
    34   17   18 1    
    35   17   86 1    
    36   17   87 1    
    37   18   19 1    
    38   18   37 1    
    39   18   88 1    
    40   19   20 am   BACKBONE|DICT|INTERRES
    41   19   89 1    
    42   20   21 2    
    43   20   22 1    
    44   22   23 1    
    45   22   24 1    
    46   22   90 1    
    47   23   91 1    
    48   23   92 1    
    49   23   93 1    
    50   24   25 am   BACKBONE|DICT|INTERRES
    51   24   94 1    
    52   25   26 2    
    53   25   27 1    
    54   27   28 1    
    55   27   29 1    
    56   27   95 1    
    57   28   96 1    
    58   28   97 1    
    59   28   98 1    
    60   29   30 am   BACKBONE|DICT|INTERRES
    61   29   99 1    
    62   30   31 2    
    63   30   32 1    
    64   32   33 1    
    65   32   34 1    
    66   32  100 1    
    67   33  101 1    
    68   33  102 1    
    69   33  103 1    
    70   34   35 am   BACKBONE|DICT|INTERRES
    71   34  104 1    
    72   35   36 2    
    73   37   38 2    
    74   37   39 am   BACKBONE|DICT|INTERRES
    75   39   40 1    
    76   39  105 1    
    77   40   41 1    
    78   40   42 1    
    79   40  106 1    
    80   41  107 1    
    81   41  108 1    
    82   41  109 1    
    83   42   43 2    
    84   42   44 am   BACKBONE|DICT|INTERRES
    85   44   45 1    
    86   44  110 1    
    87   45   46 1    
    88   45   47 1    
    89   45  111 1    
    90   46  112 1    
    91   46  113 1    
    92   46  114 1    
    93   47   48 2    
    94   47   49 am   BACKBONE|DICT|INTERRES
    95   49   50 1    
    96   49  115 1    
    97   50   51 1    
    98   50   52 1    
    99   50  116 1    
   100   51  117 1    
   101   51  118 1    
   102   51  119 1    
   103   52   53 2    
   104   52   54 am   BACKBONE|DICT|INTERRES
   105   54   55 1    
   106   54  120 1    
   107   55   56 1    
   108   55   57 1    
   109   55  121 1    
   110   56  122 1    
   111   56  123 1    
   112   56  124 1    
   113   57   58 2    
   114   57   59 am   BACKBONE|DICT|INTERRES
   115   59   60 1    
   116   59  125 1    
   117   60   61 1    
   118   60   62 1    
   119   60  126 1    
   120   61  127 1    
   121   61  128 1    
   122   61  129 1    
   123   62   63 2    
   124   62   64 am   BACKBONE|DICT|INTERRES
   125   64   65 1    
   126   64  130 1    
   127   65   66 1    
   128   65   69 1    
   129   65  131 1    
   130   66   67 am   BACKBONE|DICT|INTERRES
   131   66   68 2    
   132   67  132 1    
   133   67  133 1    
   134   69   70 1    
   135   69  134 1    
   136   69  135 1    
   137   70   71 1    
   138   71  136 1    
   139   71  137 1    
@<TRIPOS>SUBSTRUCTURE
     1 UNK         1 GROUP             0       ****    0 ROOT    
