@<TRIPOS>MOLECULE
3R137
137   139    1
SMALL
USER_CHARGES


@<TRIPOS>ATOM
      1 CA         29.3611    1.7553   -2.2302 C.3       0 UNK        -0.2020 
      2 C          28.6477    0.7101   -1.3851 C.2       0 UNK         0.4855 
      3 O          28.0553    1.0567   -0.3633 O.2       0 UNK        -0.5197 
      4 N          28.7117   -0.5601   -1.8079 N.am      1 UNK        -0.4892 
      5 CA         28.1611   -1.7437   -1.1299 C.3       1 UNK         0.0835 
      6 C6         28.8732   -2.0932    0.2089 C.3       12 UNK        -0.0855 
      7 S7         30.6930   -2.2074    0.0898 S.3       12 UNK        -0.2931 
      8 C8         30.9539   -3.9605   -0.3351 C.3       12 UNK         0.0378 
      9 C9         30.7723   -4.2012   -1.8262 C.ar      12 UNK        -0.0802 
     10 C10        31.7506   -3.7632   -2.7240 C.ar      12 UNK        -0.0944 
     11 C11        31.5861   -3.9459   -4.0993 C.ar      12 UNK        -0.0787 
     12 C12        30.4360   -4.5794   -4.5762 C.ar      12 UNK        -0.0862 
     13 C13        29.4471   -5.0167   -3.6889 C.ar      12 UNK        -0.0733 
     14 C14        29.6296   -4.8437   -2.3131 C.ar      12 UNK        -0.0832 
     15 C15        28.1709   -5.6567   -4.2166 C.3       12 UNK         0.0240 
     16 S16        26.7527   -4.5165   -4.1131 S.3       12 UNK        -0.2522 
     17 C17        27.2020   -3.2254   -5.3237 C.3       12 UNK        -0.0967 
     18 CA         26.3683   -3.3000   -6.6299 C.3       5 UNK         0.0660 
     19 N          24.9358   -3.1594   -6.3631 N.am      5 UNK        -0.4015 
     20 C          23.9588   -3.7355   -7.0756 C.2       4 UNK         0.4946 
     21 O          24.1648   -4.5028   -8.0179 O.2       4 UNK        -0.5353 
     22 CA         22.5014   -3.4364   -6.6700 C.3       4 UNK         0.0277 
     23 CB         21.8870   -4.6525   -5.9562 C.3       4 UNK        -0.1981 
     24 N          22.3679   -2.2644   -5.8021 N.am      4 UNK        -0.4209 
     25 C          22.3951   -0.9900   -6.2183 C.2       3 UNK         0.4942 
     26 O          22.4272   -0.6576   -7.4032 O.2       3 UNK        -0.5208 
     27 CA         22.3966    0.1013   -5.1274 C.3       3 UNK         0.0250 
     28 CB         20.9840    0.6796   -4.9429 C.3       3 UNK        -0.1990 
     29 N          22.9073   -0.3537   -3.8261 N.am      3 UNK        -0.4232 
     30 C          24.1621   -0.7704   -3.6110 C.2       2 UNK         0.4993 
     31 O          25.0301   -0.7979   -4.4866 O.2       2 UNK        -0.5286 
     32 CA         24.4815   -1.3185   -2.2170 C.3       2 UNK         0.0209 
     33 CB         23.8245   -2.7030   -2.0276 C.3       2 UNK        -0.1931 
     34 N          25.9342   -1.4191   -2.0960 N.am      2 UNK        -0.4546 
     35 C          26.6241   -1.6748   -0.9797 C.2       1 UNK         0.5154 
     36 O          26.0952   -1.8426    0.1218 O.2       1 UNK        -0.5181 
     37 C          26.8182   -2.2044   -7.6164 C.2       5 UNK         0.5014 
     38 O          26.0715   -1.2615   -7.8910 O.2       5 UNK        -0.5248 
     39 N          28.0741   -2.2909   -8.0763 N.am      6 UNK        -0.4434 
     40 CA         28.7567   -1.2861   -8.9044 C.3       6 UNK         0.0363 
     41 CB         29.9702   -1.9486   -9.5828 C.3       6 UNK        -0.1936 
     42 C          29.1497   -0.0029   -8.1332 C.2       6 UNK         0.5081 
     43 O          30.1889    0.5943   -8.4205 O.2       6 UNK        -0.5248 
     44 N          28.3133    0.4170   -7.1747 N.am      7 UNK        -0.4718 
     45 CA         28.5001    1.5843   -6.3107 C.3       7 UNK         0.0273 
     46 CB         27.3879    1.6093   -5.2501 C.3       7 UNK        -0.1935 
     47 C          28.5415    2.9093   -7.0864 C.2       7 UNK         0.5018 
     48 O          29.3203    3.7925   -6.7297 O.2       7 UNK        -0.5186 
     49 N          27.7604    2.9975   -8.1729 N.am      8 UNK        -0.4240 
     50 CA         27.7436    4.1280   -9.1083 C.3       8 UNK         0.0235 
     51 CB         26.5881    3.9412  -10.1047 C.3       8 UNK        -0.2000 
     52 C          29.0739    4.3315   -9.8597 C.2       8 UNK         0.4941 
     53 O          29.3641    5.4548  -10.2721 O.2       8 UNK        -0.5273 
     54 N          29.8597    3.2560  -10.0044 N.am      9 UNK        -0.4262 
     55 CA         31.2060    3.2602  -10.5778 C.3       9 UNK         0.0264 
     56 CB         31.3292    2.0590  -11.5330 C.3       9 UNK        -0.1955 
     57 C          32.2952    3.2005   -9.4896 C.2       9 UNK         0.5031 
     58 O          33.4683    3.0518   -9.8358 O.2       9 UNK        -0.5390 
     59 N          31.9045    3.2617   -8.2043 N.am      10 UNK        -0.4204 
     60 CA         32.7402    3.0896   -7.0080 C.3       10 UNK         0.0237 
     61 CB         33.6459    4.3227   -6.8053 C.3       10 UNK        -0.1985 
     62 C          33.5249    1.7598   -6.9998 C.2       10 UNK         0.4970 
     63 O          34.6657    1.7273   -6.5344 O.2       10 UNK        -0.4914 
     64 N          32.9082    0.7017   -7.5464 N.am      11 UNK        -0.4285 
     65 CA         33.5023   -0.6209   -7.8021 C.3       11 UNK         0.1007 
     66 C          34.6443   -0.6269   -8.8667 C.2       11 UNK         0.5703 
     67 N          34.8392    0.4260   -9.6534 N.am      11 UNK        -0.7361 
     68 O          35.3489   -1.6229   -9.0149 O.2       11 UNK        -0.4986 
     69 C69        33.8823   -1.3828   -6.4993 C.3       12 UNK        -0.0947 
     70 S70        32.4438   -1.6766   -5.4152 S.3       12 UNK        -0.2240 
     71 C71        32.6477   -3.4500   -5.0668 C.3       12 UNK         0.0194 
     72 H72        30.2081    2.1638   -1.6797 H         1 UNK         0.0906 
     73 H73        29.7342    1.3410   -3.1665 H         1 UNK         0.0906 
     74 H74        28.6838    2.5754   -2.4660 H         1 UNK         0.0906 
     75 H75        29.2372   -0.7645   -2.6463 H         1 UNK         0.3140 
     76 H76        28.3334   -2.5723   -1.8144 H         1 UNK         0.1085 
     77 H77        28.4891   -3.0326    0.6107 H         1 UNK         0.0836 
     78 H78        28.6455   -1.3352    0.9607 H         1 UNK         0.0836 
     79 H79        30.2883   -4.5941    0.2531 H         1 UNK         0.0731 
     80 H80        31.9690   -4.2419   -0.0508 H         1 UNK         0.0731 
     81 H81        32.6332   -3.2606   -2.3517 H         1 UNK         0.1312 
     82 H82        30.3043   -4.7159   -5.6408 H         1 UNK         0.1406 
     83 H83        28.8645   -5.1808   -1.6266 H         1 UNK         0.1631 
     84 H84        27.9474   -6.5519   -3.6347 H         1 UNK         0.0717 
     85 H85        28.2953   -5.9864   -5.2493 H         1 UNK         0.0717 
     86 H86        27.0805   -2.2558   -4.8412 H         1 UNK         0.0934 
     87 H87        28.2656   -3.2980   -5.5438 H         1 UNK         0.0934 
     88 H88        26.5546   -4.2673   -7.1016 H         1 UNK         0.0739 
     89 H89        24.6981   -2.4592   -5.6708 H         1 UNK         0.3093 
     90 H90        21.9374   -3.2577   -7.5882 H         1 UNK         0.0818 
     91 H91        22.4126   -4.8856   -5.0291 H         1 UNK         0.0819 
     92 H92        20.8371   -4.4841   -5.7158 H         1 UNK         0.0819 
     93 H93        21.9336   -5.5406   -6.5882 H         1 UNK         0.0819 
     94 H94        22.3098   -2.4391   -4.8100 H         1 UNK         0.3041 
     95 H95        23.0517    0.9022   -5.4773 H         1 UNK         0.0784 
     96 H96        20.5888    1.0536   -5.8887 H         1 UNK         0.0793 
     97 H97        20.2848   -0.0710   -4.5722 H         1 UNK         0.0793 
     98 H98        20.9847    1.5151   -4.2426 H         1 UNK         0.0793 
     99 H99        22.2477   -0.3653   -3.0607 H         1 UNK         0.3024 
    100 H100       24.1109   -0.6169   -1.4664 H         1 UNK         0.1171 
    101 H101       24.1813   -3.4215   -2.7666 H         1 UNK         0.0786 
    102 H102       22.7398   -2.6454   -2.1239 H         1 UNK         0.0786 
    103 H103       24.0292   -3.1158   -1.0401 H         1 UNK         0.0786 
    104 H104       26.4228   -1.2429   -2.9651 H         1 UNK         0.2977 
    105 H105       28.6365   -3.0813   -7.7962 H         1 UNK         0.3127 
    106 H106       28.0692   -0.9713   -9.6921 H         1 UNK         0.0770 
    107 H107       30.6940   -2.3042   -8.8495 H         1 UNK         0.0814 
    108 H108       30.4868   -1.2517  -10.2441 H         1 UNK         0.0814 
    109 H109       29.6667   -2.7991  -10.1933 H         1 UNK         0.0814 
    110 H110       27.4418   -0.0936   -7.0732 H         1 UNK         0.2983 
    111 H111       29.4616    1.4727   -5.8047 H         1 UNK         0.0947 
    112 H112       26.3958    1.6322   -5.7034 H         1 UNK         0.0806 
    113 H113       27.4728    2.4886   -4.6108 H         1 UNK         0.0806 
    114 H114       27.4351    0.7318   -4.6052 H         1 UNK         0.0806 
    115 H115       27.1574    2.2160   -8.3876 H         1 UNK         0.3000 
    116 H116       27.5561    5.0350   -8.5294 H         1 UNK         0.0850 
    117 H117       26.5312    4.7817  -10.7981 H         1 UNK         0.0810 
    118 H118       25.6273    3.8815   -9.5930 H         1 UNK         0.0810 
    119 H119       26.7097    3.0355  -10.7004 H         1 UNK         0.0810 
    120 H120       29.5576    2.3747   -9.6072 H         1 UNK         0.3040 
    121 H121       31.3719    4.1737  -11.1525 H         1 UNK         0.0766 
    122 H122       30.5649    2.0895  -12.3096 H         1 UNK         0.0812 
    123 H123       31.2322    1.1108  -11.0027 H         1 UNK         0.0812 
    124 H124       32.2975    2.0530  -12.0354 H         1 UNK         0.0812 
    125 H125       30.9186    3.4002   -8.0128 H         1 UNK         0.3205 
    126 H126       32.0542    3.0390   -6.1612 H         1 UNK         0.0754 
    127 H127       34.1806    4.2661   -5.8564 H         1 UNK         0.0769 
    128 H128       33.0629    5.2437   -6.7920 H         1 UNK         0.0769 
    129 H129       34.3921    4.4093   -7.5960 H         1 UNK         0.0769 
    130 H130       31.9584    0.8144   -7.8938 H         1 UNK         0.2981 
    131 H131       32.7064   -1.1912   -8.2794 H         1 UNK         0.0541 
    132 H132       34.2823    1.2695   -9.5622 H         1 UNK         0.3459 
    133 H133       35.5743    0.3895  -10.3409 H         1 UNK         0.3459 
    134 H134       34.3292   -2.3478   -6.7435 H         1 UNK         0.0612 
    135 H135       34.6405   -0.8403   -5.9337 H         1 UNK         0.0612 
    136 H136       33.6392   -3.6246   -4.6459 H         1 UNK         0.0624 
    137 H137       32.6028   -4.0100   -6.0023 H         1 UNK         0.0624 
@<TRIPOS>BOND
     1    1    2 1    
     2    1   72 1    
     3    1   73 1    
     4    1   74 1    
     5    2    3 2    
     6    2    4 am   BACKBONE|DICT|INTERRES
     7    4    5 1    
     8    4   75 1    
     9    5    6 1    
    10    5   35 1    
    11    5   76 1    
    12    6    7 1    
    13    6   77 1    
    14    6   78 1    
    15    7    8 1    
    16    8    9 1    
    17    8   79 1    
    18    8   80 1    
    19    9   10 ar   
    20    9   14 ar   
    21   10   11 ar   
    22   10   81 1    
    23   11   12 ar   
    24   11   71 1    
    25   12   13 ar   
    26   12   82 1    
    27   13   14 ar   
    28   13   15 1    
    29   14   83 1    
    30   15   16 1    
    31   15   84 1    
    32   15   85 1    
    33   16   17 1    
    34   17   18 1    
    35   17   86 1    
    36   17   87 1    
    37   18   19 1    
    38   18   37 1    
    39   18   88 1    
    40   19   20 am   BACKBONE|DICT|INTERRES
    41   19   89 1    
    42   20   21 2    
    43   20   22 1    
    44   22   23 1    
    45   22   24 1    
    46   22   90 1    
    47   23   91 1    
    48   23   92 1    
    49   23   93 1    
    50   24   25 am   BACKBONE|DICT|INTERRES
    51   24   94 1    
    52   25   26 2    
    53   25   27 1    
    54   27   28 1    
    55   27   29 1    
    56   27   95 1    
    57   28   96 1    
    58   28   97 1    
    59   28   98 1    
    60   29   30 am   BACKBONE|DICT|INTERRES
    61   29   99 1    
    62   30   31 2    
    63   30   32 1    
    64   32   33 1    
    65   32   34 1    
    66   32  100 1    
    67   33  101 1    
    68   33  102 1    
    69   33  103 1    
    70   34   35 am   BACKBONE|DICT|INTERRES
    71   34  104 1    
    72   35   36 2    
    73   37   38 2    
    74   37   39 am   BACKBONE|DICT|INTERRES
    75   39   40 1    
    76   39  105 1    
    77   40   41 1    
    78   40   42 1    
    79   40  106 1    
    80   41  107 1    
    81   41  108 1    
    82   41  109 1    
    83   42   43 2    
    84   42   44 am   BACKBONE|DICT|INTERRES
    85   44   45 1    
    86   44  110 1    
    87   45   46 1    
    88   45   47 1    
    89   45  111 1    
    90   46  112 1    
    91   46  113 1    
    92   46  114 1    
    93   47   48 2    
    94   47   49 am   BACKBONE|DICT|INTERRES
    95   49   50 1    
    96   49  115 1    
    97   50   51 1    
    98   50   52 1    
    99   50  116 1    
   100   51  117 1    
   101   51  118 1    
   102   51  119 1    
   103   52   53 2    
   104   52   54 am   BACKBONE|DICT|INTERRES
   105   54   55 1    
   106   54  120 1    
   107   55   56 1    
   108   55   57 1    
   109   55  121 1    
   110   56  122 1    
   111   56  123 1    
   112   56  124 1    
   113   57   58 2    
   114   57   59 am   BACKBONE|DICT|INTERRES
   115   59   60 1    
   116   59  125 1    
   117   60   61 1    
   118   60   62 1    
   119   60  126 1    
   120   61  127 1    
   121   61  128 1    
   122   61  129 1    
   123   62   63 2    
   124   62   64 am   BACKBONE|DICT|INTERRES
   125   64   65 1    
   126   64  130 1    
   127   65   66 1    
   128   65   69 1    
   129   65  131 1    
   130   66   67 am   BACKBONE|DICT|INTERRES
   131   66   68 2    
   132   67  132 1    
   133   67  133 1    
   134   69   70 1    
   135   69  134 1    
   136   69  135 1    
   137   70   71 1    
   138   71  136 1    
   139   71  137 1    
@<TRIPOS>SUBSTRUCTURE
     1 UNK         1 GROUP             0       ****    0 ROOT    
