@<TRIPOS>MOLECULE
3R137
137   139    1
SMALL
USER_CHARGES


@<TRIPOS>ATOM
      1 CA         32.4093   -6.4317   -6.1187 C.3       0 UNK        -0.2020 
      2 C          31.1480   -6.3309   -5.2733 C.2       0 UNK         0.4855 
      3 O          30.6338   -7.3546   -4.8209 O.2       0 UNK        -0.5197 
      4 N          30.6556   -5.1069   -5.0454 N.am      1 UNK        -0.4892 
      5 CA         29.4249   -4.8178   -4.3025 C.3       1 UNK         0.0835 
      6 C6         29.2931   -3.3030   -4.0032 C.3       12 UNK        -0.0855 
      7 S7         28.2448   -2.9951   -2.5413 S.3       12 UNK        -0.2931 
      8 C8         29.4731   -2.4850   -1.3004 C.3       12 UNK         0.0378 
      9 C9         29.8605   -1.0249   -1.4736 C.ar      12 UNK        -0.0802 
     10 C10        31.0630   -0.6731   -2.0926 C.ar      12 UNK        -0.0944 
     11 C11        31.4173    0.6715   -2.2393 C.ar      12 UNK        -0.0787 
     12 C12        30.5554    1.6691   -1.7731 C.ar      12 UNK        -0.0862 
     13 C13        29.3515    1.3272   -1.1486 C.ar      12 UNK        -0.0733 
     14 C14        29.0138   -0.0209   -0.9974 C.ar      12 UNK        -0.0832 
     15 C15        28.4240    2.4066   -0.6101 C.3       12 UNK         0.0240 
     16 S16        26.7999    2.3874   -1.4327 S.3       12 UNK        -0.2522 
     17 C17        27.2153    2.9835   -3.1066 C.3       12 UNK        -0.0967 
     18 CA         27.1915    1.8592   -4.1875 C.3       5 UNK         0.0660 
     19 N          25.9218    1.1251   -4.2071 N.am      5 UNK        -0.4015 
     20 C          24.7277    1.5893   -4.5973 C.2       4 UNK         0.4946 
     21 O          24.5567    2.7026   -5.1004 O.2       4 UNK        -0.5353 
     22 CA         23.5284    0.6406   -4.3915 C.3       4 UNK         0.0277 
     23 CB         22.1820    1.2951   -4.7559 C.3       4 UNK        -0.1981 
     24 N          23.6708   -0.6103   -5.1424 N.am      4 UNK        -0.4209 
     25 C          24.4691   -1.6291   -4.7997 C.2       3 UNK         0.4942 
     26 O          25.1800   -1.6320   -3.7912 O.2       3 UNK        -0.5208 
     27 CA         24.5097   -2.8167   -5.7656 C.3       3 UNK         0.0250 
     28 CB         25.2874   -2.4478   -7.0404 C.3       3 UNK        -0.1990 
     29 N          25.1592   -3.9468   -5.1086 N.am      3 UNK        -0.4232 
     30 C          25.0255   -5.2325   -5.4557 C.2       2 UNK         0.4993 
     31 O          24.2932   -5.6163   -6.3705 O.2       2 UNK        -0.5286 
     32 CA         25.8435   -6.2579   -4.6423 C.3       2 UNK         0.0209 
     33 CB         25.9762   -7.6219   -5.3545 C.3       2 UNK        -0.1931 
     34 N          27.1633   -5.7568   -4.2301 N.am      2 UNK        -0.4546 
     35 C          28.1685   -5.3554   -5.0250 C.2       1 UNK         0.5154 
     36 O          28.1236   -5.3592   -6.2581 O.2       1 UNK        -0.5181 
     37 C          27.5526    2.3584   -5.6073 C.2       5 UNK         0.5014 
     38 O          27.7120    1.5432   -6.5219 O.2       5 UNK        -0.5248 
     39 N          27.6321    3.6863   -5.7802 N.am      6 UNK        -0.4434 
     40 CA         27.9402    4.3987   -7.0227 C.3       6 UNK         0.0363 
     41 CB         28.0950    5.8959   -6.7087 C.3       6 UNK        -0.1936 
     42 C          26.9334    4.1893   -8.1706 C.2       6 UNK         0.5081 
     43 O          27.2458    4.5696   -9.2990 O.2       6 UNK        -0.5248 
     44 N          25.7695    3.5765   -7.8963 N.am      7 UNK        -0.4718 
     45 CA         24.8043    3.1402   -8.9131 C.3       7 UNK         0.0273 
     46 CB         23.5481    2.5821   -8.2281 C.3       7 UNK        -0.1935 
     47 C          25.3866    2.0992   -9.8884 C.2       7 UNK         0.5018 
     48 O          25.0136    2.1041  -11.0622 O.2       7 UNK        -0.5186 
     49 N          26.3037    1.2569   -9.3914 N.am      8 UNK        -0.4240 
     50 CA         27.1323    0.3610  -10.2019 C.3       8 UNK         0.0235 
     51 CB         26.9571   -1.0874   -9.7227 C.3       8 UNK        -0.2000 
     52 C          28.6148    0.7546  -10.1361 C.2       8 UNK         0.4941 
     53 O          29.3256    0.5397  -11.1180 O.2       8 UNK        -0.5273 
     54 N          29.0589    1.2951   -8.9875 N.am      9 UNK        -0.4262 
     55 CA         30.4451    1.6450   -8.6523 C.3       9 UNK         0.0264 
     56 CB         30.9714    2.7853   -9.5494 C.3       9 UNK        -0.1955 
     57 C          31.3733    0.4153   -8.6210 C.2       9 UNK         0.5031 
     58 O          32.5542    0.5179   -8.9621 O.2       9 UNK        -0.5390 
     59 N          30.8278   -0.7305   -8.1868 N.am      10 UNK        -0.4204 
     60 CA         31.5150   -2.0170   -8.0468 C.3       10 UNK         0.0237 
     61 CB         30.4647   -3.1443   -8.0647 C.3       10 UNK        -0.1985 
     62 C          32.4035   -2.0475   -6.7884 C.2       10 UNK         0.4970 
     63 O          32.2055   -2.8892   -5.9110 O.2       10 UNK        -0.4914 
     64 N          33.3419   -1.1010   -6.7205 N.am      11 UNK        -0.4285 
     65 CA         34.2443   -0.8531   -5.5879 C.3       11 UNK         0.1007 
     66 C          35.6858   -1.3914   -5.8143 C.2       11 UNK         0.5703 
     67 N          35.9943   -2.0208   -6.9425 N.am      11 UNK        -0.7361 
     68 O          36.5391   -1.2536   -4.9408 O.2       11 UNK        -0.4986 
     69 C69        34.2425    0.6526   -5.2082 C.3       12 UNK        -0.0947 
     70 S70        32.5875    1.2132   -4.6798 S.3       12 UNK        -0.2240 
     71 C71        32.7463    1.0369   -2.8781 C.3       12 UNK         0.0194 
     72 H72        33.1985   -6.9310   -5.5575 H         1 UNK         0.0906 
     73 H73        32.2108   -7.0124   -7.0191 H         1 UNK         0.0906 
     74 H74        32.7789   -5.4529   -6.4224 H         1 UNK         0.0906 
     75 H75        31.1455   -4.2978   -5.4243 H         1 UNK         0.3140 
     76 H76        29.5207   -5.3518   -3.3540 H         1 UNK         0.1085 
     77 H77        30.2767   -2.8672   -3.8251 H         1 UNK         0.0836 
     78 H78        28.8866   -2.7578   -4.8576 H         1 UNK         0.0836 
     79 H79        29.0486   -2.6306   -0.3059 H         1 UNK         0.0731 
     80 H80        30.3491   -3.1337   -1.3538 H         1 UNK         0.0731 
     81 H81        31.7281   -1.4444   -2.4567 H         1 UNK         0.1312 
     82 H82        30.8298    2.7091   -1.8865 H         1 UNK         0.1406 
     83 H83        28.0825   -0.2889   -0.5162 H         1 UNK         0.1631 
     84 H84        28.8695    3.3978   -0.7078 H         1 UNK         0.0717 
     85 H85        28.2765    2.2428    0.4583 H         1 UNK         0.0717 
     86 H86        26.4922    3.7664   -3.3434 H         1 UNK         0.0934 
     87 H87        28.1948    3.4648   -3.0753 H         1 UNK         0.0934 
     88 H88        27.9591    1.1294   -3.9240 H         1 UNK         0.0739 
     89 H89        25.9542    0.1705   -3.8605 H         1 UNK         0.3093 
     90 H90        23.4960    0.4030   -3.3256 H         1 UNK         0.0818 
     91 H91        21.3449    0.6395   -4.5157 H         1 UNK         0.0819 
     92 H92        22.0346    2.2210   -4.1981 H         1 UNK         0.0819 
     93 H93        22.1211    1.5415   -5.8157 H         1 UNK         0.0819 
     94 H94        23.1423   -0.6783   -6.0003 H         1 UNK         0.3041 
     95 H95        23.4825   -3.0869   -6.0201 H         1 UNK         0.0784 
     96 H96        24.8425   -1.5893   -7.5447 H         1 UNK         0.0793 
     97 H97        26.3226   -2.1960   -6.8071 H         1 UNK         0.0793 
     98 H98        25.2984   -3.2713   -7.7547 H         1 UNK         0.0793 
     99 H99        25.7356   -3.6914   -4.3150 H         1 UNK         0.3024 
    100 H100       25.2769   -6.4236   -3.7244 H         1 UNK         0.1171 
    101 H101       26.4765   -7.5281   -6.3189 H         1 UNK         0.0786 
    102 H102       24.9967   -8.0650   -5.5389 H         1 UNK         0.0786 
    103 H103       26.5422   -8.3316   -4.7511 H         1 UNK         0.0786 
    104 H104       27.2958   -5.6696   -3.2312 H         1 UNK         0.2977 
    105 H105       27.4336    4.2732   -4.9836 H         1 UNK         0.3127 
    106 H106       28.9027    4.0273   -7.3785 H         1 UNK         0.0770 
    107 H107       27.1675    6.3260   -6.3285 H         1 UNK         0.0814 
    108 H108       28.3710    6.4575   -7.6025 H         1 UNK         0.0814 
    109 H109       28.8767    6.0697   -5.9688 H         1 UNK         0.0814 
    110 H110       25.5618    3.3269   -6.9349 H         1 UNK         0.2983 
    111 H111       24.5188    4.0174   -9.4977 H         1 UNK         0.0947 
    112 H112       22.7890    2.3133   -8.9638 H         1 UNK         0.0806 
    113 H113       23.1027    3.3149   -7.5547 H         1 UNK         0.0806 
    114 H114       23.7729    1.6859   -7.6493 H         1 UNK         0.0806 
    115 H115       26.5338    1.3376   -8.4088 H         1 UNK         0.3000 
    116 H116       26.8326    0.4080  -11.2511 H         1 UNK         0.0850 
    117 H117       27.5410   -1.7744  -10.3370 H         1 UNK         0.0810 
    118 H118       27.2904   -1.2115   -8.6930 H         1 UNK         0.0810 
    119 H119       25.9158   -1.4023   -9.7883 H         1 UNK         0.0810 
    120 H120       28.4128    1.3891   -8.2070 H         1 UNK         0.3040 
    121 H121       30.4213    2.0209   -7.6282 H         1 UNK         0.0766 
    122 H122       30.2881    3.6346   -9.5549 H         1 UNK         0.0812 
    123 H123       31.1097    2.4596  -10.5806 H         1 UNK         0.0812 
    124 H124       31.9365    3.1473   -9.1928 H         1 UNK         0.0812 
    125 H125       29.8640   -0.7050   -7.8892 H         1 UNK         0.3205 
    126 H126       32.1700   -2.1586   -8.9091 H         1 UNK         0.0754 
    127 H127       30.9384   -4.1248   -8.0010 H         1 UNK         0.0769 
    128 H128       29.8838   -3.1297   -8.9871 H         1 UNK         0.0769 
    129 H129       29.7662   -3.0647   -7.2309 H         1 UNK         0.0769 
    130 H130       33.3981   -0.4416   -7.4912 H         1 UNK         0.2981 
    131 H131       33.8774   -1.4035   -4.7197 H         1 UNK         0.0541 
    132 H132       36.9303   -2.3711   -7.0726 H         1 UNK         0.3459 
    133 H133       35.3010   -2.1501   -7.6615 H         1 UNK         0.3459 
    134 H134       34.5529    1.2592   -6.0607 H         1 UNK         0.0612 
    135 H135       34.9587    0.8636   -4.4119 H         1 UNK         0.0612 
    136 H136       33.1324    1.9670   -2.4586 H         1 UNK         0.0624 
    137 H137       33.4808    0.2655   -2.6412 H         1 UNK         0.0624 
@<TRIPOS>BOND
     1    1    2 1    
     2    1   72 1    
     3    1   73 1    
     4    1   74 1    
     5    2    3 2    
     6    2    4 am   BACKBONE|DICT|INTERRES
     7    4    5 1    
     8    4   75 1    
     9    5    6 1    
    10    5   35 1    
    11    5   76 1    
    12    6    7 1    
    13    6   77 1    
    14    6   78 1    
    15    7    8 1    
    16    8    9 1    
    17    8   79 1    
    18    8   80 1    
    19    9   10 ar   
    20    9   14 ar   
    21   10   11 ar   
    22   10   81 1    
    23   11   12 ar   
    24   11   71 1    
    25   12   13 ar   
    26   12   82 1    
    27   13   14 ar   
    28   13   15 1    
    29   14   83 1    
    30   15   16 1    
    31   15   84 1    
    32   15   85 1    
    33   16   17 1    
    34   17   18 1    
    35   17   86 1    
    36   17   87 1    
    37   18   19 1    
    38   18   37 1    
    39   18   88 1    
    40   19   20 am   BACKBONE|DICT|INTERRES
    41   19   89 1    
    42   20   21 2    
    43   20   22 1    
    44   22   23 1    
    45   22   24 1    
    46   22   90 1    
    47   23   91 1    
    48   23   92 1    
    49   23   93 1    
    50   24   25 am   BACKBONE|DICT|INTERRES
    51   24   94 1    
    52   25   26 2    
    53   25   27 1    
    54   27   28 1    
    55   27   29 1    
    56   27   95 1    
    57   28   96 1    
    58   28   97 1    
    59   28   98 1    
    60   29   30 am   BACKBONE|DICT|INTERRES
    61   29   99 1    
    62   30   31 2    
    63   30   32 1    
    64   32   33 1    
    65   32   34 1    
    66   32  100 1    
    67   33  101 1    
    68   33  102 1    
    69   33  103 1    
    70   34   35 am   BACKBONE|DICT|INTERRES
    71   34  104 1    
    72   35   36 2    
    73   37   38 2    
    74   37   39 am   BACKBONE|DICT|INTERRES
    75   39   40 1    
    76   39  105 1    
    77   40   41 1    
    78   40   42 1    
    79   40  106 1    
    80   41  107 1    
    81   41  108 1    
    82   41  109 1    
    83   42   43 2    
    84   42   44 am   BACKBONE|DICT|INTERRES
    85   44   45 1    
    86   44  110 1    
    87   45   46 1    
    88   45   47 1    
    89   45  111 1    
    90   46  112 1    
    91   46  113 1    
    92   46  114 1    
    93   47   48 2    
    94   47   49 am   BACKBONE|DICT|INTERRES
    95   49   50 1    
    96   49  115 1    
    97   50   51 1    
    98   50   52 1    
    99   50  116 1    
   100   51  117 1    
   101   51  118 1    
   102   51  119 1    
   103   52   53 2    
   104   52   54 am   BACKBONE|DICT|INTERRES
   105   54   55 1    
   106   54  120 1    
   107   55   56 1    
   108   55   57 1    
   109   55  121 1    
   110   56  122 1    
   111   56  123 1    
   112   56  124 1    
   113   57   58 2    
   114   57   59 am   BACKBONE|DICT|INTERRES
   115   59   60 1    
   116   59  125 1    
   117   60   61 1    
   118   60   62 1    
   119   60  126 1    
   120   61  127 1    
   121   61  128 1    
   122   61  129 1    
   123   62   63 2    
   124   62   64 am   BACKBONE|DICT|INTERRES
   125   64   65 1    
   126   64  130 1    
   127   65   66 1    
   128   65   69 1    
   129   65  131 1    
   130   66   67 am   BACKBONE|DICT|INTERRES
   131   66   68 2    
   132   67  132 1    
   133   67  133 1    
   134   69   70 1    
   135   69  134 1    
   136   69  135 1    
   137   70   71 1    
   138   71  136 1    
   139   71  137 1    
@<TRIPOS>SUBSTRUCTURE
     1 UNK         1 GROUP             0       ****    0 ROOT    
