@<TRIPOS>MOLECULE
3R137
137   139    1
SMALL
USER_CHARGES


@<TRIPOS>ATOM
      1 CA         28.0195   -3.0724    2.0755 C.3       0 UNK        -0.2020 
      2 C          27.8624   -2.6701    0.6178 C.2       0 UNK         0.4855 
      3 O          27.7392   -1.4835    0.3164 O.2       0 UNK        -0.5197 
      4 N          27.8432   -3.6471   -0.2966 N.am      1 UNK        -0.4892 
      5 CA         27.7695   -3.4642   -1.7547 C.3       1 UNK         0.0835 
      6 C6         28.4288   -4.6468   -2.5152 C.3       12 UNK        -0.0855 
      7 S7         30.1376   -4.9850   -1.9598 S.3       12 UNK        -0.2931 
      8 C8         31.1419   -4.3566   -3.3522 C.3       12 UNK         0.0378 
      9 C9         31.0862   -2.8433   -3.5702 C.ar      12 UNK        -0.0802 
     10 C10        31.2743   -2.3412   -4.8625 C.ar      12 UNK        -0.0944 
     11 C11        31.2601   -0.9647   -5.1019 C.ar      12 UNK        -0.0787 
     12 C12        31.0523   -0.0854   -4.0387 C.ar      12 UNK        -0.0862 
     13 C13        30.8102   -0.5667   -2.7502 C.ar      12 UNK        -0.0733 
     14 C14        30.8718   -1.9440   -2.5163 C.ar      12 UNK        -0.0832 
     15 C15        30.4599    0.3884   -1.6115 C.3       12 UNK         0.0240 
     16 S16        29.2456    1.6795   -2.0758 S.3       12 UNK        -0.2522 
     17 C17        27.8453    0.7100   -2.7390 C.3       12 UNK        -0.0967 
     18 CA         27.7250    0.8285   -4.2829 C.3       5 UNK         0.0660 
     19 N          27.1299   -0.3631   -4.8886 N.am      5 UNK        -0.4015 
     20 C          27.2720   -0.7142   -6.1752 C.2       4 UNK         0.4946 
     21 O          27.9603   -0.0969   -6.9878 O.2       4 UNK        -0.5353 
     22 CA         26.4883   -1.9466   -6.6519 C.3       4 UNK         0.0277 
     23 CB         27.3261   -3.2195   -6.4610 C.3       4 UNK        -0.1981 
     24 N          25.1957   -2.0903   -5.9760 N.am      4 UNK        -0.4209 
     25 C          24.1658   -1.2497   -6.1611 C.2       3 UNK         0.4942 
     26 O          24.1935   -0.3014   -6.9437 O.2       3 UNK        -0.5208 
     27 CA         22.9141   -1.4573   -5.2919 C.3       3 UNK         0.0250 
     28 CB         21.9504   -2.4471   -5.9648 C.3       3 UNK        -0.1990 
     29 N          23.2033   -1.9058   -3.9273 N.am      3 UNK        -0.4232 
     30 C          23.9961   -1.2737   -3.0504 C.2       2 UNK         0.4993 
     31 O          24.5953   -0.2259   -3.3008 O.2       2 UNK        -0.5286 
     32 CA         24.2010   -1.9341   -1.6764 C.3       2 UNK         0.0209 
     33 CB         23.2534   -3.1222   -1.3912 C.3       2 UNK        -0.1931 
     34 N          25.5965   -2.3405   -1.4811 N.am      2 UNK        -0.4546 
     35 C          26.3318   -3.1633   -2.2442 C.2       1 UNK         0.5154 
     36 O          25.9159   -3.6716   -3.2878 O.2       1 UNK        -0.5181 
     37 C          26.9780    2.0992   -4.7235 C.2       5 UNK         0.5014 
     38 O          27.6234    3.0874   -5.0740 O.2       5 UNK        -0.5248 
     39 N          25.6381    2.0345   -4.7509 N.am      6 UNK        -0.4434 
     40 CA         24.7605    3.1000   -5.2429 C.3       6 UNK         0.0363 
     41 CB         23.2948    2.7244   -4.9749 C.3       6 UNK        -0.1936 
     42 C          24.9789    3.4191   -6.7333 C.2       6 UNK         0.5081 
     43 O          25.0180    4.5935   -7.1010 O.2       6 UNK        -0.5248 
     44 N          25.1386    2.3751   -7.5585 N.am      7 UNK        -0.4718 
     45 CA         25.4369    2.4881   -8.9889 C.3       7 UNK         0.0273 
     46 CB         25.0836    1.1597   -9.6782 C.3       7 UNK        -0.1935 
     47 C          26.9005    2.8580   -9.2904 C.2       7 UNK         0.5018 
     48 O          27.1729    3.3228  -10.3980 O.2       7 UNK        -0.5186 
     49 N          27.8067    2.6148   -8.3294 N.am      8 UNK        -0.4240 
     50 CA         29.2702    2.6843   -8.4412 C.3       8 UNK         0.0235 
     51 CB         29.7482    4.1368   -8.6476 C.3       8 UNK        -0.2000 
     52 C          29.7910    1.7102   -9.5164 C.2       8 UNK         0.4941 
     53 O          30.5224    2.1084  -10.4267 O.2       8 UNK        -0.5273 
     54 N          29.3527    0.4486   -9.4138 N.am      9 UNK        -0.4262 
     55 CA         29.5519   -0.6188  -10.3960 C.3       9 UNK         0.0264 
     56 CB         28.5200   -1.7287  -10.1235 C.3       9 UNK        -0.1955 
     57 C          30.9969   -1.1539  -10.4270 C.2       9 UNK         0.5031 
     58 O          31.2357   -2.3021  -10.0459 O.2       9 UNK        -0.5390 
     59 N          31.9370   -0.3048  -10.8652 N.am      10 UNK        -0.4204 
     60 CA         33.3800   -0.5227  -11.0730 C.3       10 UNK         0.0237 
     61 CB         33.6371   -1.6303  -12.1135 C.3       10 UNK        -0.1985 
     62 C          34.1958   -0.7715   -9.7900 C.2       10 UNK         0.4970 
     63 O          35.2928   -0.2265   -9.6637 O.2       10 UNK        -0.4914 
     64 N          33.6415   -1.5636   -8.8677 N.am      11 UNK        -0.4285 
     65 CA         34.1426   -1.8484   -7.5135 C.3       11 UNK         0.1007 
     66 C          35.4175   -2.7427   -7.4595 C.2       11 UNK         0.5703 
     67 N          35.8048   -3.4079   -8.5416 N.am      11 UNK        -0.7361 
     68 O          36.0503   -2.8651   -6.4132 O.2       11 UNK        -0.4986 
     69 C69        34.2643   -0.5775   -6.6170 C.3       12 UNK        -0.0947 
     70 S70        32.8825    0.6179   -6.7215 S.3       12 UNK        -0.2240 
     71 C71        31.4008   -0.4183   -6.5132 C.3       12 UNK         0.0194 
     72 H72        27.1480   -2.7546    2.6499 H         1 UNK         0.0906 
     73 H73        28.1296   -4.1511    2.1907 H         1 UNK         0.0906 
     74 H74        28.9016   -2.5936    2.5011 H         1 UNK         0.0906 
     75 H75        27.9309   -4.6065    0.0079 H         1 UNK         0.3140 
     76 H76        28.3380   -2.5706   -2.0051 H         1 UNK         0.1085 
     77 H77        28.4423   -4.4574   -3.5886 H         1 UNK         0.0836 
     78 H78        27.8433   -5.5578   -2.3786 H         1 UNK         0.0836 
     79 H79        30.8340   -4.8798   -4.2592 H         1 UNK         0.0731 
     80 H80        32.1818   -4.6353   -3.1768 H         1 UNK         0.0731 
     81 H81        31.4269   -3.0255   -5.6858 H         1 UNK         0.1312 
     82 H82        31.0322    0.9792   -4.2276 H         1 UNK         0.1406 
     83 H83        30.7254   -2.3158   -1.5115 H         1 UNK         0.1631 
     84 H84        31.3736    0.8728   -1.2653 H         1 UNK         0.0717 
     85 H85        30.0592   -0.1635   -0.7595 H         1 UNK         0.0717 
     86 H86        27.9923   -0.3293   -2.4490 H         1 UNK         0.0934 
     87 H87        26.9251    1.0179   -2.2381 H         1 UNK         0.0934 
     88 H88        28.7263    0.9131   -4.7025 H         1 UNK         0.0739 
     89 H89        26.4638   -0.8687   -4.3209 H         1 UNK         0.3093 
     90 H90        26.2991   -1.8216   -7.7203 H         1 UNK         0.0818 
     91 H91        28.2878   -3.1376   -6.9689 H         1 UNK         0.0819 
     92 H92        26.8180   -4.0951   -6.8651 H         1 UNK         0.0819 
     93 H93        27.5350   -3.4068   -5.4095 H         1 UNK         0.0819 
     94 H94        25.1155   -2.8235   -5.2812 H         1 UNK         0.3041 
     95 H95        22.4091   -0.4929   -5.2132 H         1 UNK         0.0784 
     96 H96        21.7036   -2.1234   -6.9772 H         1 UNK         0.0793 
     97 H97        22.3822   -3.4461   -6.0382 H         1 UNK         0.0793 
     98 H98        21.0123   -2.5250   -5.4149 H         1 UNK         0.0793 
     99 H99        22.7802   -2.7759   -3.6384 H         1 UNK         0.3024 
    100 H100       23.9927   -1.1577   -0.9383 H         1 UNK         0.1171 
    101 H101       23.3910   -3.4906   -0.3744 H         1 UNK         0.0786 
    102 H102       22.2071   -2.8258   -1.4796 H         1 UNK         0.0786 
    103 H103       23.4235   -3.9622   -2.0658 H         1 UNK         0.0786 
    104 H104       26.0726   -1.9255   -0.6853 H         1 UNK         0.2977 
    105 H105       25.1878    1.1963   -4.3889 H         1 UNK         0.3127 
    106 H106       24.9906    4.0028   -4.6733 H         1 UNK         0.0770 
    107 H107       22.9980    1.8362   -5.5327 H         1 UNK         0.0814 
    108 H108       22.6259    3.5331   -5.2719 H         1 UNK         0.0814 
    109 H109       23.1203    2.5300   -3.9165 H         1 UNK         0.0814 
    110 H110       25.0050    1.4342   -7.1955 H         1 UNK         0.2983 
    111 H111       24.8068    3.2728   -9.4138 H         1 UNK         0.0947 
    112 H112       25.2649    1.2133  -10.7526 H         1 UNK         0.0806 
    113 H113       24.0321    0.9078   -9.5391 H         1 UNK         0.0806 
    114 H114       25.6797    0.3342   -9.2867 H         1 UNK         0.0806 
    115 H115       27.4626    2.2122   -7.4674 H         1 UNK         0.3000 
    116 H116       29.6684    2.3398   -7.4858 H         1 UNK         0.0850 
    117 H117       30.8372    4.1927   -8.6257 H         1 UNK         0.0810 
    118 H118       29.3730    4.7909   -7.8606 H         1 UNK         0.0810 
    119 H119       29.4223    4.5422   -9.6058 H         1 UNK         0.0810 
    120 H120       28.7906    0.2114   -8.5968 H         1 UNK         0.3040 
    121 H121       29.3404   -0.2105  -11.3866 H         1 UNK         0.0766 
    122 H122       27.5005   -1.3476  -10.1828 H         1 UNK         0.0812 
    123 H123       28.6571   -2.1680   -9.1355 H         1 UNK         0.0812 
    124 H124       28.6080   -2.5337  -10.8543 H         1 UNK         0.0812 
    125 H125       31.6176    0.6499  -11.0211 H         1 UNK         0.3205 
    126 H126       33.7528    0.4120  -11.4952 H         1 UNK         0.0754 
    127 H127       34.7024   -1.7209  -12.3302 H         1 UNK         0.0769 
    128 H128       33.1331   -1.4127  -13.0552 H         1 UNK         0.0769 
    129 H129       33.2932   -2.6055  -11.7675 H         1 UNK         0.0769 
    130 H130       32.7499   -1.9891   -9.1141 H         1 UNK         0.2981 
    131 H131       33.3743   -2.4775   -7.0664 H         1 UNK         0.0541 
    132 H132       35.2894   -3.3234   -9.4027 H         1 UNK         0.3459 
    133 H133       36.6242   -3.9928   -8.4957 H         1 UNK         0.3459 
    134 H134       34.3673   -0.8694   -5.5704 H         1 UNK         0.0612 
    135 H135       35.1759   -0.0323   -6.8666 H         1 UNK         0.0612 
    136 H136       30.5316    0.2022   -6.7236 H         1 UNK         0.0624 
    137 H137       31.3803   -1.2159   -7.2553 H         1 UNK         0.0624 
@<TRIPOS>BOND
     1    1    2 1    
     2    1   72 1    
     3    1   73 1    
     4    1   74 1    
     5    2    3 2    
     6    2    4 am   BACKBONE|DICT|INTERRES
     7    4    5 1    
     8    4   75 1    
     9    5    6 1    
    10    5   35 1    
    11    5   76 1    
    12    6    7 1    
    13    6   77 1    
    14    6   78 1    
    15    7    8 1    
    16    8    9 1    
    17    8   79 1    
    18    8   80 1    
    19    9   10 ar   
    20    9   14 ar   
    21   10   11 ar   
    22   10   81 1    
    23   11   12 ar   
    24   11   71 1    
    25   12   13 ar   
    26   12   82 1    
    27   13   14 ar   
    28   13   15 1    
    29   14   83 1    
    30   15   16 1    
    31   15   84 1    
    32   15   85 1    
    33   16   17 1    
    34   17   18 1    
    35   17   86 1    
    36   17   87 1    
    37   18   19 1    
    38   18   37 1    
    39   18   88 1    
    40   19   20 am   BACKBONE|DICT|INTERRES
    41   19   89 1    
    42   20   21 2    
    43   20   22 1    
    44   22   23 1    
    45   22   24 1    
    46   22   90 1    
    47   23   91 1    
    48   23   92 1    
    49   23   93 1    
    50   24   25 am   BACKBONE|DICT|INTERRES
    51   24   94 1    
    52   25   26 2    
    53   25   27 1    
    54   27   28 1    
    55   27   29 1    
    56   27   95 1    
    57   28   96 1    
    58   28   97 1    
    59   28   98 1    
    60   29   30 am   BACKBONE|DICT|INTERRES
    61   29   99 1    
    62   30   31 2    
    63   30   32 1    
    64   32   33 1    
    65   32   34 1    
    66   32  100 1    
    67   33  101 1    
    68   33  102 1    
    69   33  103 1    
    70   34   35 am   BACKBONE|DICT|INTERRES
    71   34  104 1    
    72   35   36 2    
    73   37   38 2    
    74   37   39 am   BACKBONE|DICT|INTERRES
    75   39   40 1    
    76   39  105 1    
    77   40   41 1    
    78   40   42 1    
    79   40  106 1    
    80   41  107 1    
    81   41  108 1    
    82   41  109 1    
    83   42   43 2    
    84   42   44 am   BACKBONE|DICT|INTERRES
    85   44   45 1    
    86   44  110 1    
    87   45   46 1    
    88   45   47 1    
    89   45  111 1    
    90   46  112 1    
    91   46  113 1    
    92   46  114 1    
    93   47   48 2    
    94   47   49 am   BACKBONE|DICT|INTERRES
    95   49   50 1    
    96   49  115 1    
    97   50   51 1    
    98   50   52 1    
    99   50  116 1    
   100   51  117 1    
   101   51  118 1    
   102   51  119 1    
   103   52   53 2    
   104   52   54 am   BACKBONE|DICT|INTERRES
   105   54   55 1    
   106   54  120 1    
   107   55   56 1    
   108   55   57 1    
   109   55  121 1    
   110   56  122 1    
   111   56  123 1    
   112   56  124 1    
   113   57   58 2    
   114   57   59 am   BACKBONE|DICT|INTERRES
   115   59   60 1    
   116   59  125 1    
   117   60   61 1    
   118   60   62 1    
   119   60  126 1    
   120   61  127 1    
   121   61  128 1    
   122   61  129 1    
   123   62   63 2    
   124   62   64 am   BACKBONE|DICT|INTERRES
   125   64   65 1    
   126   64  130 1    
   127   65   66 1    
   128   65   69 1    
   129   65  131 1    
   130   66   67 am   BACKBONE|DICT|INTERRES
   131   66   68 2    
   132   67  132 1    
   133   67  133 1    
   134   69   70 1    
   135   69  134 1    
   136   69  135 1    
   137   70   71 1    
   138   71  136 1    
   139   71  137 1    
@<TRIPOS>SUBSTRUCTURE
     1 UNK         1 GROUP             0       ****    0 ROOT    
