@<TRIPOS>MOLECULE
3R137
137   139    1
SMALL
USER_CHARGES


@<TRIPOS>ATOM
      1 CA         26.9245   -0.4865    3.3944 C.3       0 UNK        -0.2020 
      2 C          27.3717    0.1410    2.0828 C.2       0 UNK         0.4855 
      3 O          27.4222    1.3664    1.9758 O.2       0 UNK        -0.5197 
      4 N          27.6976   -0.6893    1.0837 N.am      1 UNK        -0.4892 
      5 CA         28.1211   -0.2670   -0.2585 C.3       1 UNK         0.0835 
      6 C6         28.8438   -1.4126   -1.0110 C.3       12 UNK        -0.0855 
      7 S7         27.8393   -2.9296   -1.1861 S.3       12 UNK        -0.2931 
      8 C8         29.1251   -4.2177   -1.1748 C.3       12 UNK         0.0378 
      9 C9         29.8552   -4.3044   -2.5079 C.ar      12 UNK        -0.0802 
     10 C10        31.1529   -3.8025   -2.6497 C.ar      12 UNK        -0.0944 
     11 C11        31.8338   -3.9287   -3.8661 C.ar      12 UNK        -0.0787 
     12 C12        31.2012   -4.5445   -4.9512 C.ar      12 UNK        -0.0862 
     13 C13        29.9077   -5.0567   -4.8167 C.ar      12 UNK        -0.0733 
     14 C14        29.2413   -4.9325   -3.5944 C.ar      12 UNK        -0.0832 
     15 C15        29.2398   -5.7958   -5.9648 C.3       12 UNK         0.0240 
     16 S16        27.8736   -4.8338   -6.6784 S.3       12 UNK        -0.2522 
     17 C17        28.6529   -4.0483   -8.1346 C.3       12 UNK        -0.0967 
     18 CA         28.1939   -2.5873   -8.3950 C.3       5 UNK         0.0660 
     19 N          26.7635   -2.4047   -8.1346 N.am      5 UNK        -0.4015 
     20 C          26.0170   -1.3501   -8.4807 C.2       4 UNK         0.4946 
     21 O          26.4361   -0.3913   -9.1273 O.2       4 UNK        -0.5353 
     22 CA         24.5707   -1.3366   -7.9536 C.3       4 UNK         0.0277 
     23 CB         23.6316   -2.0251   -8.9564 C.3       4 UNK        -0.1981 
     24 N          24.3972   -1.9404   -6.6220 N.am      4 UNK        -0.4209 
     25 C          25.0673   -1.5895   -5.5138 C.2       3 UNK         0.4942 
     26 O          25.9808   -0.7628   -5.5019 O.2       3 UNK        -0.5208 
     27 CA         24.6996   -2.3273   -4.2164 C.3       3 UNK         0.0250 
     28 CB         25.5615   -3.5903   -4.0654 C.3       3 UNK        -0.1990 
     29 N          24.8859   -1.4835   -3.0327 N.am      3 UNK        -0.4232 
     30 C          24.1648   -0.3883   -2.7499 C.2       2 UNK         0.4993 
     31 O          23.2289    0.0067   -3.4474 O.2       2 UNK        -0.5286 
     32 CA         24.5052    0.3862   -1.4622 C.3       2 UNK         0.0209 
     33 CB         23.3432    0.3012   -0.4571 C.3       2 UNK        -0.1931 
     34 N          25.7267   -0.0790   -0.7995 N.am      2 UNK        -0.4546 
     35 C          26.9676    0.3330   -1.0951 C.2       1 UNK         0.5154 
     36 O          27.2191    1.1583   -1.9732 O.2       1 UNK        -0.5181 
     37 C          29.1080   -1.5499   -7.7003 C.2       5 UNK         0.5014 
     38 O          30.2548   -1.3949   -8.1277 O.2       5 UNK        -0.5248 
     39 N          28.6009   -0.8500   -6.6768 N.am      6 UNK        -0.4434 
     40 CA         29.2766    0.2603   -6.0103 C.3       6 UNK         0.0363 
     41 CB         29.3427   -0.0233   -4.5041 C.3       6 UNK        -0.1936 
     42 C          28.5735    1.5956   -6.2809 C.2       6 UNK         0.5081 
     43 O          29.2499    2.6087   -6.4528 O.2       6 UNK        -0.5248 
     44 N          27.2354    1.5902   -6.3236 N.am      7 UNK        -0.4718 
     45 CA         26.4183    2.7827   -6.5479 C.3       7 UNK         0.0273 
     46 CB         24.9583    2.4768   -6.1786 C.3       7 UNK        -0.1935 
     47 C          26.5148    3.3427   -7.9780 C.2       7 UNK         0.5018 
     48 O          26.3440    4.5509   -8.1496 O.2       7 UNK        -0.5186 
     49 N          26.7706    2.4807   -8.9727 N.am      8 UNK        -0.4240 
     50 CA         26.8038    2.8484  -10.3885 C.3       8 UNK         0.0235 
     51 CB         25.3762    2.7667  -10.9691 C.3       8 UNK        -0.2000 
     52 C          27.8169    2.0149  -11.1938 C.2       8 UNK         0.4941 
     53 O          27.6107    1.8284  -12.3952 O.2       8 UNK        -0.5273 
     54 N          28.8987    1.5400  -10.5590 N.am      9 UNK        -0.4262 
     55 CA         29.9779    0.8056  -11.2255 C.3       9 UNK         0.0264 
     56 CB         29.5735   -0.6577  -11.5151 C.3       9 UNK        -0.1955 
     57 C          31.2935    0.9295  -10.4402 C.2       9 UNK         0.5031 
     58 O          31.4186    1.8042   -9.5797 O.2       9 UNK        -0.5390 
     59 N          32.2613    0.0737  -10.7978 N.am      10 UNK        -0.4204 
     60 CA         33.6835    0.1317  -10.4433 C.3       10 UNK         0.0237 
     61 CB         34.4031   -1.0688  -11.0809 C.3       10 UNK        -0.1985 
     62 C          34.0359    0.2235   -8.9482 C.2       10 UNK         0.4970 
     63 O          35.0833    0.7922   -8.6353 O.2       10 UNK        -0.4914 
     64 N          33.1968   -0.3216   -8.0567 N.am      11 UNK        -0.4285 
     65 CA         33.3824   -0.1949   -6.6006 C.3       11 UNK         0.1007 
     66 C          32.9838    1.2073   -6.0373 C.2       11 UNK         0.5703 
     67 N          32.3779    2.0955   -6.8170 N.am      11 UNK        -0.7361 
     68 O          33.2556    1.5155   -4.8800 O.2       11 UNK        -0.4986 
     69 C69        32.7280   -1.3879   -5.8498 C.3       12 UNK        -0.0947 
     70 S70        33.3825   -1.6434   -4.1660 S.3       12 UNK        -0.2240 
     71 C71        33.2730   -3.4481   -3.9897 C.3       12 UNK         0.0194 
     72 H72        26.9326   -1.5754    3.3501 H         1 UNK         0.0906 
     73 H73        27.5851   -0.1756    4.2033 H         1 UNK         0.0906 
     74 H74        25.9124   -0.1646    3.6382 H         1 UNK         0.0906 
     75 H75        27.6434   -1.6895    1.2217 H         1 UNK         0.3140 
     76 H76        28.8458    0.5406   -0.1302 H         1 UNK         0.1085 
     77 H77        29.7632   -1.6575   -0.4771 H         1 UNK         0.0836 
     78 H78        29.1655   -1.0886   -1.9994 H         1 UNK         0.0836 
     79 H79        29.8239   -4.0412   -0.3556 H         1 UNK         0.0731 
     80 H80        28.6526   -5.1781   -0.9636 H         1 UNK         0.0731 
     81 H81        31.6428   -3.3294   -1.8096 H         1 UNK         0.1312 
     82 H82        31.7262   -4.6500   -5.8907 H         1 UNK         0.1406 
     83 H83        28.2424   -5.3338   -3.4862 H         1 UNK         0.1631 
     84 H84        28.8383   -6.7383   -5.5900 H         1 UNK         0.0717 
     85 H85        29.9610   -6.0653   -6.7379 H         1 UNK         0.0717 
     86 H86        29.7408   -4.1137   -8.0631 H         1 UNK         0.0934 
     87 H87        28.3886   -4.6603   -8.9984 H         1 UNK         0.0934 
     88 H88        28.3150   -2.4101   -9.4632 H         1 UNK         0.0739 
     89 H89        26.3366   -3.1351   -7.5827 H         1 UNK         0.3093 
     90 H90        24.2681   -0.2920   -7.8767 H         1 UNK         0.0818 
     91 H91        22.5877   -1.9211   -8.6600 H         1 UNK         0.0819 
     92 H92        23.7285   -1.5820   -9.9489 H         1 UNK         0.0819 
     93 H93        23.8504   -3.0894   -9.0520 H         1 UNK         0.0819 
     94 H94        23.6758   -2.6432   -6.5427 H         1 UNK         0.3041 
     95 H95        23.6479   -2.6180   -4.2602 H         1 UNK         0.0784 
     96 H96        25.3881   -4.2850   -4.8880 H         1 UNK         0.0793 
     97 H97        26.6260   -3.3502   -4.0599 H         1 UNK         0.0793 
     98 H98        25.3339   -4.1223   -3.1414 H         1 UNK         0.0793 
     99 H99        25.6571   -1.7184   -2.4245 H         1 UNK         0.3024 
    100 H100       24.6332    1.4332   -1.7476 H         1 UNK         0.1171 
    101 H101       22.4188    0.6831   -0.8928 H         1 UNK         0.0786 
    102 H102       23.5463    0.8945    0.4349 H         1 UNK         0.0786 
    103 H103       23.1550   -0.7261   -0.1427 H         1 UNK         0.0786 
    104 H104       25.6187   -0.7594   -0.0610 H         1 UNK         0.2977 
    105 H105       27.6465   -1.0292   -6.3772 H         1 UNK         0.3127 
    106 H106       30.2898    0.3670   -6.3905 H         1 UNK         0.0770 
    107 H107       28.3444   -0.1150   -4.0750 H         1 UNK         0.0814 
    108 H108       29.8576    0.7800   -3.9756 H         1 UNK         0.0814 
    109 H109       29.8791   -0.9495   -4.2972 H         1 UNK         0.0814 
    110 H110       26.7387    0.7296   -6.0985 H         1 UNK         0.2983 
    111 H111       26.7783    3.5614   -5.8717 H         1 UNK         0.0947 
    112 H112       24.3408    3.3725   -6.2578 H         1 UNK         0.0806 
    113 H113       24.8739    2.1132   -5.1539 H         1 UNK         0.0806 
    114 H114       24.5249    1.7248   -6.8360 H         1 UNK         0.0806 
    115 H115       26.8491    1.4855   -8.7744 H         1 UNK         0.3000 
    116 H116       27.1477    3.8807  -10.4807 H         1 UNK         0.0850 
    117 H117       25.3508    3.0919  -12.0099 H         1 UNK         0.0810 
    118 H118       24.6846    3.4051  -10.4193 H         1 UNK         0.0810 
    119 H119       24.9922    1.7464  -10.9329 H         1 UNK         0.0810 
    120 H120       29.0735    1.7882   -9.5934 H         1 UNK         0.3040 
    121 H121       30.1616    1.2981  -12.1830 H         1 UNK         0.0766 
    122 H122       30.1204   -1.0485  -12.3735 H         1 UNK         0.0812 
    123 H123       28.5127   -0.7573  -11.7459 H         1 UNK         0.0812 
    124 H124       29.7930   -1.3111  -10.6749 H         1 UNK         0.0812 
    125 H125       32.0202   -0.6207  -11.4896 H         1 UNK         0.3205 
    126 H126       34.0754    1.0396  -10.9062 H         1 UNK         0.0754 
    127 H127       35.4728   -1.0455  -10.8663 H         1 UNK         0.0769 
    128 H128       34.2956   -1.0689  -12.1659 H         1 UNK         0.0769 
    129 H129       34.0162   -2.0163  -10.7033 H         1 UNK         0.0769 
    130 H130       32.3225   -0.7315   -8.3659 H         1 UNK         0.2981 
    131 H131       34.4552   -0.2772   -6.4153 H         1 UNK         0.0541 
    132 H132       32.1280    1.8769   -7.7769 H         1 UNK         0.3459 
    133 H133       32.1139    2.9869   -6.4303 H         1 UNK         0.3459 
    134 H134       32.9051   -2.3043   -6.4144 H         1 UNK         0.0612 
    135 H135       31.6477   -1.2877   -5.7934 H         1 UNK         0.0612 
    136 H136       33.8273   -3.7438   -3.0979 H         1 UNK         0.0624 
    137 H137       33.7756   -3.9287   -4.8305 H         1 UNK         0.0624 
@<TRIPOS>BOND
     1    1    2 1    
     2    1   72 1    
     3    1   73 1    
     4    1   74 1    
     5    2    3 2    
     6    2    4 am   BACKBONE|DICT|INTERRES
     7    4    5 1    
     8    4   75 1    
     9    5    6 1    
    10    5   35 1    
    11    5   76 1    
    12    6    7 1    
    13    6   77 1    
    14    6   78 1    
    15    7    8 1    
    16    8    9 1    
    17    8   79 1    
    18    8   80 1    
    19    9   10 ar   
    20    9   14 ar   
    21   10   11 ar   
    22   10   81 1    
    23   11   12 ar   
    24   11   71 1    
    25   12   13 ar   
    26   12   82 1    
    27   13   14 ar   
    28   13   15 1    
    29   14   83 1    
    30   15   16 1    
    31   15   84 1    
    32   15   85 1    
    33   16   17 1    
    34   17   18 1    
    35   17   86 1    
    36   17   87 1    
    37   18   19 1    
    38   18   37 1    
    39   18   88 1    
    40   19   20 am   BACKBONE|DICT|INTERRES
    41   19   89 1    
    42   20   21 2    
    43   20   22 1    
    44   22   23 1    
    45   22   24 1    
    46   22   90 1    
    47   23   91 1    
    48   23   92 1    
    49   23   93 1    
    50   24   25 am   BACKBONE|DICT|INTERRES
    51   24   94 1    
    52   25   26 2    
    53   25   27 1    
    54   27   28 1    
    55   27   29 1    
    56   27   95 1    
    57   28   96 1    
    58   28   97 1    
    59   28   98 1    
    60   29   30 am   BACKBONE|DICT|INTERRES
    61   29   99 1    
    62   30   31 2    
    63   30   32 1    
    64   32   33 1    
    65   32   34 1    
    66   32  100 1    
    67   33  101 1    
    68   33  102 1    
    69   33  103 1    
    70   34   35 am   BACKBONE|DICT|INTERRES
    71   34  104 1    
    72   35   36 2    
    73   37   38 2    
    74   37   39 am   BACKBONE|DICT|INTERRES
    75   39   40 1    
    76   39  105 1    
    77   40   41 1    
    78   40   42 1    
    79   40  106 1    
    80   41  107 1    
    81   41  108 1    
    82   41  109 1    
    83   42   43 2    
    84   42   44 am   BACKBONE|DICT|INTERRES
    85   44   45 1    
    86   44  110 1    
    87   45   46 1    
    88   45   47 1    
    89   45  111 1    
    90   46  112 1    
    91   46  113 1    
    92   46  114 1    
    93   47   48 2    
    94   47   49 am   BACKBONE|DICT|INTERRES
    95   49   50 1    
    96   49  115 1    
    97   50   51 1    
    98   50   52 1    
    99   50  116 1    
   100   51  117 1    
   101   51  118 1    
   102   51  119 1    
   103   52   53 2    
   104   52   54 am   BACKBONE|DICT|INTERRES
   105   54   55 1    
   106   54  120 1    
   107   55   56 1    
   108   55   57 1    
   109   55  121 1    
   110   56  122 1    
   111   56  123 1    
   112   56  124 1    
   113   57   58 2    
   114   57   59 am   BACKBONE|DICT|INTERRES
   115   59   60 1    
   116   59  125 1    
   117   60   61 1    
   118   60   62 1    
   119   60  126 1    
   120   61  127 1    
   121   61  128 1    
   122   61  129 1    
   123   62   63 2    
   124   62   64 am   BACKBONE|DICT|INTERRES
   125   64   65 1    
   126   64  130 1    
   127   65   66 1    
   128   65   69 1    
   129   65  131 1    
   130   66   67 am   BACKBONE|DICT|INTERRES
   131   66   68 2    
   132   67  132 1    
   133   67  133 1    
   134   69   70 1    
   135   69  134 1    
   136   69  135 1    
   137   70   71 1    
   138   71  136 1    
   139   71  137 1    
@<TRIPOS>SUBSTRUCTURE
     1 UNK         1 GROUP             0       ****    0 ROOT    
