@<TRIPOS>MOLECULE
3R137
137   139    1
SMALL
USER_CHARGES


@<TRIPOS>ATOM
      1 CA         31.1847   -0.2454    0.9933 C.3       0 UNK        -0.2020 
      2 C          30.2672   -0.9005   -0.0270 C.2       0 UNK         0.4855 
      3 O          30.1644   -0.4212   -1.1557 O.2       0 UNK        -0.5197 
      4 N          29.5839   -1.9857    0.3595 N.am      1 UNK        -0.4892 
      5 CA         28.6632   -2.7712   -0.4754 C.3       1 UNK         0.0835 
      6 C6         28.6111   -4.2434    0.0176 C.3       12 UNK        -0.0855 
      7 S7         28.1964   -5.4556   -1.2836 S.3       12 UNK        -0.2931 
      8 C8         29.8207   -5.8057   -2.0418 C.3       12 UNK         0.0378 
      9 C9         30.0446   -4.9204   -3.2577 C.ar      12 UNK        -0.0802 
     10 C10        30.7742   -3.7326   -3.1528 C.ar      12 UNK        -0.0944 
     11 C11        30.8710   -2.8551   -4.2370 C.ar      12 UNK        -0.0787 
     12 C12        30.2635   -3.2058   -5.4484 C.ar      12 UNK        -0.0862 
     13 C13        29.5749   -4.4153   -5.5835 C.ar      12 UNK        -0.0733 
     14 C14        29.4729   -5.2703   -4.4835 C.ar      12 UNK        -0.0832 
     15 C15        28.9376   -4.7890   -6.9166 C.3       12 UNK         0.0240 
     16 S16        27.1537   -5.1607   -6.8017 S.3       12 UNK        -0.2522 
     17 C17        26.4552   -3.6633   -6.0274 C.3       12 UNK        -0.0967 
     18 CA         26.2681   -2.4904   -7.0291 C.3       5 UNK         0.0660 
     19 N          24.9859   -1.8034   -6.8482 N.am      5 UNK        -0.4015 
     20 C          24.5072   -0.8172   -7.6237 C.2       4 UNK         0.4946 
     21 O          25.1153   -0.3399   -8.5800 O.2       4 UNK        -0.5353 
     22 CA         23.1159   -0.2573   -7.2782 C.3       4 UNK         0.0277 
     23 CB         22.0452   -0.8892   -8.1819 C.3       4 UNK        -0.1981 
     24 N          22.7556   -0.4674   -5.8744 N.am      4 UNK        -0.4209 
     25 C          23.3146    0.1930   -4.8522 C.2       3 UNK         0.4942 
     26 O          24.0862    1.1440   -5.0027 O.2       3 UNK        -0.5208 
     27 CA         22.9596   -0.2956   -3.4319 C.3       3 UNK         0.0250 
     28 CB         22.5668   -1.7905   -3.3693 C.3       3 UNK        -0.1990 
     29 N          24.0254   -0.0180   -2.4625 N.am      3 UNK        -0.4232 
     30 C          25.3049   -0.4208   -2.5132 C.2       2 UNK         0.4993 
     31 O          25.7820   -1.1099   -3.4226 O.2       2 UNK        -0.5286 
     32 CA         26.2174    0.0852   -1.3772 C.3       2 UNK         0.0209 
     33 CB         25.4696    0.4424   -0.0706 C.3       2 UNK        -0.1931 
     34 N          27.3297   -0.8277   -1.1037 N.am      2 UNK        -0.4546 
     35 C          27.2879   -2.0779   -0.6216 C.2       1 UNK         0.5154 
     36 O          26.2534   -2.6499   -0.2719 O.2       1 UNK        -0.5181 
     37 C          27.4562   -1.5145   -6.9759 C.2       5 UNK         0.5014 
     38 O          28.2680   -1.4973   -7.9026 O.2       5 UNK        -0.5248 
     39 N          27.5142   -0.6957   -5.9142 N.am      6 UNK        -0.4434 
     40 CA         28.5609    0.3099   -5.7156 C.3       6 UNK         0.0363 
     41 CB         28.4065    0.9543   -4.3314 C.3       6 UNK        -0.1936 
     42 C          28.6002    1.3839   -6.8133 C.2       6 UNK         0.5081 
     43 O          29.6884    1.8310   -7.1768 O.2       6 UNK        -0.5248 
     44 N          27.4239    1.7554   -7.3362 N.am      7 UNK        -0.4718 
     45 CA         27.2769    2.6826   -8.4572 C.3       7 UNK         0.0273 
     46 CB         25.8263    3.1871   -8.5274 C.3       7 UNK        -0.1935 
     47 C          27.7082    2.0484   -9.7889 C.2       7 UNK         0.5018 
     48 O          28.4581    2.6764  -10.5359 O.2       7 UNK        -0.5186 
     49 N          27.2483    0.8162  -10.0519 N.am      8 UNK        -0.4240 
     50 CA         27.5490    0.0462  -11.2622 C.3       8 UNK         0.0235 
     51 CB         26.6763   -1.2190  -11.3013 C.3       8 UNK        -0.2000 
     52 C          29.0353   -0.3188  -11.3954 C.2       8 UNK         0.4941 
     53 O          29.5953   -0.1790  -12.4835 O.2       8 UNK        -0.5273 
     54 N          29.6506   -0.7619  -10.2907 N.am      9 UNK        -0.4262 
     55 CA         31.0787   -1.0831  -10.2199 C.3       9 UNK         0.0264 
     56 CB         31.3223   -2.0102   -9.0221 C.3       9 UNK        -0.1955 
     57 C          31.9795    0.1602  -10.1118 C.2       9 UNK         0.5031 
     58 O          33.1812    0.0405  -10.3553 O.2       9 UNK        -0.5390 
     59 N          31.3953    1.3093   -9.7378 N.am      10 UNK        -0.4204 
     60 CA         32.0423    2.5953   -9.4607 C.3       10 UNK         0.0237 
     61 CB         32.6539    3.1985  -10.7435 C.3       10 UNK        -0.1985 
     62 C          33.0424    2.4889   -8.2941 C.2       10 UNK         0.4970 
     63 O          34.2150    2.8383   -8.4461 O.2       10 UNK        -0.4914 
     64 N          32.5527    1.9930   -7.1501 N.am      11 UNK        -0.4285 
     65 CA         33.3285    1.8351   -5.9079 C.3       11 UNK         0.1007 
     66 C          33.7212    3.1759   -5.2193 C.2       11 UNK         0.5703 
     67 N          33.0876    4.2996   -5.5361 N.am      11 UNK        -0.7361 
     68 O          34.6230    3.1954   -4.3849 O.2       11 UNK        -0.4986 
     69 C69        32.6203    0.9003   -4.8932 C.3       12 UNK        -0.0947 
     70 S70        32.3657   -0.7982   -5.5030 S.3       12 UNK        -0.2240 
     71 C71        31.5471   -1.5005   -4.0310 C.3       12 UNK         0.0194 
     72 H72        31.1827   -0.7758    1.9453 H         1 UNK         0.0906 
     73 H73        32.2074   -0.2261    0.6177 H         1 UNK         0.0906 
     74 H74        30.8693    0.7816    1.1753 H         1 UNK         0.0906 
     75 H75        29.6749   -2.3025    1.3150 H         1 UNK         0.3140 
     76 H76        29.0668   -2.7757   -1.4853 H         1 UNK         0.1085 
     77 H77        29.5766   -4.5360    0.4335 H         1 UNK         0.0836 
     78 H78        27.9047   -4.3554    0.8423 H         1 UNK         0.0836 
     79 H79        30.6240   -5.6810   -1.3143 H         1 UNK         0.0731 
     80 H80        29.8481   -6.8535   -2.3450 H         1 UNK         0.0731 
     81 H81        31.2162   -3.4600   -2.2038 H         1 UNK         0.1312 
     82 H82        30.3071   -2.5282   -6.2862 H         1 UNK         0.1406 
     83 H83        28.9138   -6.1922   -4.5722 H         1 UNK         0.1631 
     84 H84        29.4493   -5.6675   -7.3117 H         1 UNK         0.0717 
     85 H85        29.0837   -4.0010   -7.6549 H         1 UNK         0.0717 
     86 H86        27.0405   -3.3827   -5.1486 H         1 UNK         0.0934 
     87 H87        25.4890   -3.9700   -5.6240 H         1 UNK         0.0934 
     88 H88        26.2370   -2.8955   -8.0430 H         1 UNK         0.0739 
     89 H89        24.4247   -2.1041   -6.0666 H         1 UNK         0.3093 
     90 H90        23.1372    0.8173   -7.4738 H         1 UNK         0.0818 
     91 H91        21.0630   -0.4530   -7.9989 H         1 UNK         0.0819 
     92 H92        22.2792   -0.7244   -9.2349 H         1 UNK         0.0819 
     93 H93        21.9694   -1.9667   -8.0306 H         1 UNK         0.0819 
     94 H94        22.1018   -1.2110   -5.6741 H         1 UNK         0.3041 
     95 H95        22.0966    0.2920   -3.1154 H         1 UNK         0.0784 
     96 H96        21.6521   -1.9930   -3.9272 H         1 UNK         0.0793 
     97 H97        23.3522   -2.4355   -3.7654 H         1 UNK         0.0793 
     98 H98        22.3786   -2.1011   -2.3413 H         1 UNK         0.0793 
     99 H99        23.7595    0.5807   -1.6938 H         1 UNK         0.3024 
    100 H100       26.6727    1.0028   -1.7525 H         1 UNK         0.1171 
    101 H101       26.1693    0.7197    0.7181 H         1 UNK         0.0786 
    102 H102       24.8715   -0.3918    0.2984 H         1 UNK         0.0786 
    103 H103       24.8031    1.2942   -0.2092 H         1 UNK         0.0786 
    104 H104       28.2557   -0.4756   -1.3339 H         1 UNK         0.2977 
    105 H105       26.8178   -0.7876   -5.1791 H         1 UNK         0.3127 
    106 H106       29.5180   -0.2095   -5.7469 H         1 UNK         0.0770 
    107 H107       27.4394    1.4468   -4.2231 H         1 UNK         0.0814 
    108 H108       29.1790    1.7047   -4.1588 H         1 UNK         0.0814 
    109 H109       28.4988    0.2096   -3.5416 H         1 UNK         0.0814 
    110 H110       26.5835    1.3132   -6.9913 H         1 UNK         0.2983 
    111 H111       27.9251    3.5429   -8.2746 H         1 UNK         0.0947 
    112 H112       25.7030    3.9029   -9.3413 H         1 UNK         0.0806 
    113 H113       25.5377    3.6924   -7.6056 H         1 UNK         0.0806 
    114 H114       25.1188    2.3753   -8.6987 H         1 UNK         0.0806 
    115 H115       26.6012    0.3846   -9.3935 H         1 UNK         0.3000 
    116 H116       27.2847    0.6676  -12.1205 H         1 UNK         0.0850 
    117 H117       26.8770   -1.8068  -12.1980 H         1 UNK         0.0810 
    118 H118       25.6156   -0.9675  -11.3087 H         1 UNK         0.0810 
    119 H119       26.8597   -1.8616  -10.4391 H         1 UNK         0.0810 
    120 H120       29.1046   -0.9023   -9.4405 H         1 UNK         0.3040 
    121 H121       31.3622   -1.6187  -11.1285 H         1 UNK         0.0766 
    122 H122       32.3692   -2.3100   -8.9599 H         1 UNK         0.0812 
    123 H123       31.0713   -1.5064   -8.0902 H         1 UNK         0.0812 
    124 H124       30.7251   -2.9189   -9.0916 H         1 UNK         0.0812 
    125 H125       30.4027    1.2819   -9.5460 H         1 UNK         0.3205 
    126 H126       31.2505    3.2688   -9.1285 H         1 UNK         0.0754 
    127 H127       33.0429    4.1998  -10.5551 H         1 UNK         0.0769 
    128 H128       31.9073    3.2837  -11.5332 H         1 UNK         0.0769 
    129 H129       33.4790    2.5966  -11.1255 H         1 UNK         0.0769 
    130 H130       31.5612    1.7709   -7.1006 H         1 UNK         0.2981 
    131 H131       34.2711    1.3579   -6.1827 H         1 UNK         0.0541 
    132 H132       32.3418    4.2923   -6.2127 H         1 UNK         0.3459 
    133 H133       33.3548    5.1608   -5.0862 H         1 UNK         0.3459 
    134 H134       31.6514    1.3181   -4.6140 H         1 UNK         0.0612 
    135 H135       33.2005    0.8275   -3.9711 H         1 UNK         0.0612 
    136 H136       32.2853   -1.5655   -3.2301 H         1 UNK         0.0624 
    137 H137       30.7838   -0.8017   -3.6907 H         1 UNK         0.0624 
@<TRIPOS>BOND
     1    1    2 1    
     2    1   72 1    
     3    1   73 1    
     4    1   74 1    
     5    2    3 2    
     6    2    4 am   BACKBONE|DICT|INTERRES
     7    4    5 1    
     8    4   75 1    
     9    5    6 1    
    10    5   35 1    
    11    5   76 1    
    12    6    7 1    
    13    6   77 1    
    14    6   78 1    
    15    7    8 1    
    16    8    9 1    
    17    8   79 1    
    18    8   80 1    
    19    9   10 ar   
    20    9   14 ar   
    21   10   11 ar   
    22   10   81 1    
    23   11   12 ar   
    24   11   71 1    
    25   12   13 ar   
    26   12   82 1    
    27   13   14 ar   
    28   13   15 1    
    29   14   83 1    
    30   15   16 1    
    31   15   84 1    
    32   15   85 1    
    33   16   17 1    
    34   17   18 1    
    35   17   86 1    
    36   17   87 1    
    37   18   19 1    
    38   18   37 1    
    39   18   88 1    
    40   19   20 am   BACKBONE|DICT|INTERRES
    41   19   89 1    
    42   20   21 2    
    43   20   22 1    
    44   22   23 1    
    45   22   24 1    
    46   22   90 1    
    47   23   91 1    
    48   23   92 1    
    49   23   93 1    
    50   24   25 am   BACKBONE|DICT|INTERRES
    51   24   94 1    
    52   25   26 2    
    53   25   27 1    
    54   27   28 1    
    55   27   29 1    
    56   27   95 1    
    57   28   96 1    
    58   28   97 1    
    59   28   98 1    
    60   29   30 am   BACKBONE|DICT|INTERRES
    61   29   99 1    
    62   30   31 2    
    63   30   32 1    
    64   32   33 1    
    65   32   34 1    
    66   32  100 1    
    67   33  101 1    
    68   33  102 1    
    69   33  103 1    
    70   34   35 am   BACKBONE|DICT|INTERRES
    71   34  104 1    
    72   35   36 2    
    73   37   38 2    
    74   37   39 am   BACKBONE|DICT|INTERRES
    75   39   40 1    
    76   39  105 1    
    77   40   41 1    
    78   40   42 1    
    79   40  106 1    
    80   41  107 1    
    81   41  108 1    
    82   41  109 1    
    83   42   43 2    
    84   42   44 am   BACKBONE|DICT|INTERRES
    85   44   45 1    
    86   44  110 1    
    87   45   46 1    
    88   45   47 1    
    89   45  111 1    
    90   46  112 1    
    91   46  113 1    
    92   46  114 1    
    93   47   48 2    
    94   47   49 am   BACKBONE|DICT|INTERRES
    95   49   50 1    
    96   49  115 1    
    97   50   51 1    
    98   50   52 1    
    99   50  116 1    
   100   51  117 1    
   101   51  118 1    
   102   51  119 1    
   103   52   53 2    
   104   52   54 am   BACKBONE|DICT|INTERRES
   105   54   55 1    
   106   54  120 1    
   107   55   56 1    
   108   55   57 1    
   109   55  121 1    
   110   56  122 1    
   111   56  123 1    
   112   56  124 1    
   113   57   58 2    
   114   57   59 am   BACKBONE|DICT|INTERRES
   115   59   60 1    
   116   59  125 1    
   117   60   61 1    
   118   60   62 1    
   119   60  126 1    
   120   61  127 1    
   121   61  128 1    
   122   61  129 1    
   123   62   63 2    
   124   62   64 am   BACKBONE|DICT|INTERRES
   125   64   65 1    
   126   64  130 1    
   127   65   66 1    
   128   65   69 1    
   129   65  131 1    
   130   66   67 am   BACKBONE|DICT|INTERRES
   131   66   68 2    
   132   67  132 1    
   133   67  133 1    
   134   69   70 1    
   135   69  134 1    
   136   69  135 1    
   137   70   71 1    
   138   71  136 1    
   139   71  137 1    
@<TRIPOS>SUBSTRUCTURE
     1 UNK         1 GROUP             0       ****    0 ROOT    
