@<TRIPOS>MOLECULE
3R137
137   139    1
SMALL
USER_CHARGES


@<TRIPOS>ATOM
      1 CA         22.9441   -4.8216   -2.9613 C.3       0 UNK        -0.2020 
      2 C          23.8342   -4.0841   -1.9732 C.2       0 UNK         0.4855 
      3 O          23.3995   -3.1018   -1.3710 O.2       0 UNK        -0.5197 
      4 N          25.0820   -4.5430   -1.8147 N.am      1 UNK        -0.4892 
      5 CA         26.1285   -3.9624   -0.9649 C.3       1 UNK         0.0835 
      6 C6         27.4192   -4.8315   -0.9430 C.3       12 UNK        -0.0855 
      7 S7         27.8734   -5.5927   -2.5472 S.3       12 UNK        -0.2931 
      8 C8         29.6908   -5.5142   -2.5259 C.3       12 UNK         0.0378 
      9 C9         30.2224   -4.2676   -3.2189 C.ar      12 UNK        -0.0802 
     10 C10        30.3984   -4.2628   -4.6073 C.ar      12 UNK        -0.0944 
     11 C11        30.9471   -3.1480   -5.2468 C.ar      12 UNK        -0.0787 
     12 C12        31.3325   -2.0414   -4.4887 C.ar      12 UNK        -0.0862 
     13 C13        31.1204   -2.0124   -3.1076 C.ar      12 UNK        -0.0733 
     14 C14        30.5702   -3.1339   -2.4765 C.ar      12 UNK        -0.0832 
     15 C15        31.4828   -0.7720   -2.2958 C.3       12 UNK         0.0240 
     16 S16        30.8559    0.7823   -3.0274 S.3       12 UNK        -0.2522 
     17 C17        29.0733    0.4322   -3.1822 C.3       12 UNK        -0.0967 
     18 CA         28.6381    0.1981   -4.6555 C.3       5 UNK         0.0660 
     19 N          27.5640   -0.7943   -4.7503 N.am      5 UNK        -0.4015 
     20 C          27.0307   -1.2709   -5.8842 C.2       4 UNK         0.4946 
     21 O          27.4255   -0.9800   -7.0106 O.2       4 UNK        -0.5353 
     22 CA         25.7986   -2.1769   -5.7412 C.3       4 UNK         0.0277 
     23 CB         26.2080   -3.6289   -5.4514 C.3       4 UNK        -0.1981 
     24 N          24.8904   -1.6845   -4.7031 N.am      4 UNK        -0.4209 
     25 C          24.1657   -0.5607   -4.8155 C.2       3 UNK         0.4942 
     26 O          24.1248    0.1267   -5.8352 O.2       3 UNK        -0.5208 
     27 CA         23.4025   -0.0927   -3.5661 C.3       3 UNK         0.0250 
     28 CB         22.0199   -0.7577   -3.4844 C.3       3 UNK        -0.1990 
     29 N          24.1557   -0.3363   -2.3327 N.am      3 UNK        -0.4232 
     30 C          25.2693    0.3364   -2.0018 C.2       2 UNK         0.4993 
     31 O          25.7366    1.2514   -2.6796 O.2       2 UNK        -0.5286 
     32 CA         26.0219   -0.1124   -0.7359 C.3       2 UNK         0.0209 
     33 CB         25.4954    0.6389    0.4967 C.3       2 UNK        -0.1931 
     34 N          25.9582   -1.5573   -0.4937 N.am      2 UNK        -0.4546 
     35 C          26.4067   -2.4937   -1.3418 C.2       1 UNK         0.5154 
     36 O          26.9564   -2.2283   -2.4102 O.2       1 UNK        -0.5181 
     37 C          28.2834    1.5226   -5.3623 C.2       5 UNK         0.5014 
     38 O          29.1192    2.0715   -6.0797 O.2       5 UNK        -0.5248 
     39 N          27.0472    2.0021   -5.1631 N.am      6 UNK        -0.4434 
     40 CA         26.5026    3.1815   -5.8351 C.3       6 UNK         0.0363 
     41 CB         25.1936    3.6053   -5.1495 C.3       6 UNK        -0.1936 
     42 C          26.2840    2.9634   -7.3427 C.2       6 UNK         0.5081 
     43 O          26.6209    3.8466   -8.1317 O.2       6 UNK        -0.5248 
     44 N          25.7122    1.8092   -7.7155 N.am      7 UNK        -0.4718 
     45 CA         25.3962    1.4529   -9.1009 C.3       7 UNK         0.0273 
     46 CB         24.4458    0.2446   -9.1215 C.3       7 UNK        -0.1935 
     47 C          26.6436    1.1799   -9.9561 C.2       7 UNK         0.5018 
     48 O          26.7814    1.7652  -11.0311 O.2       7 UNK        -0.5186 
     49 N          27.5282    0.3022   -9.4699 N.am      8 UNK        -0.4240 
     50 CA         28.7573   -0.1148  -10.1404 C.3       8 UNK         0.0235 
     51 CB         28.8887   -1.6473  -10.0408 C.3       8 UNK        -0.2000 
     52 C          29.9508    0.6195   -9.5162 C.2       8 UNK         0.4941 
     53 O          30.8550   -0.0191   -8.9793 O.2       8 UNK        -0.5273 
     54 N          29.9436    1.9561   -9.6162 N.am      9 UNK        -0.4262 
     55 CA         30.9312    2.8674   -9.0202 C.3       9 UNK         0.0264 
     56 CB         30.4976    4.3171   -9.2925 C.3       9 UNK        -0.1955 
     57 C          32.3945    2.6460   -9.4561 C.2       9 UNK         0.5031 
     58 O          33.3027    3.0958   -8.7556 O.2       9 UNK        -0.5390 
     59 N          32.6055    1.9612  -10.5887 N.am      10 UNK        -0.4204 
     60 CA         33.9173    1.5189  -11.0657 C.3       10 UNK         0.0237 
     61 CB         33.8042    1.1143  -12.5448 C.3       10 UNK        -0.1985 
     62 C          34.5128    0.3630  -10.2367 C.2       10 UNK         0.4970 
     63 O          35.7360    0.2195  -10.2164 O.2       10 UNK        -0.4914 
     64 N          33.6602   -0.4410   -9.5866 N.am      11 UNK        -0.4285 
     65 CA         34.0537   -1.5232   -8.6768 C.3       11 UNK         0.1007 
     66 C          34.3085   -0.9435   -7.2550 C.2       11 UNK         0.5703 
     67 N          35.3757   -1.3683   -6.5905 N.am      11 UNK        -0.7361 
     68 O          33.5435   -0.1291   -6.7432 O.2       11 UNK        -0.4986 
     69 C69        33.0319   -2.7058   -8.7651 C.3       12 UNK        -0.0947 
     70 S70        32.7494   -3.7118   -7.2623 S.3       12 UNK        -0.2240 
     71 C71        31.1077   -3.1123   -6.7566 C.3       12 UNK         0.0194 
     72 H72        21.9831   -5.0511   -2.5018 H         1 UNK         0.0906 
     73 H73        22.7637   -4.2040   -3.8404 H         1 UNK         0.0906 
     74 H74        23.3925   -5.7588   -3.2909 H         1 UNK         0.0906 
     75 H75        25.3964   -5.3305   -2.3658 H         1 UNK         0.3140 
     76 H76        25.7329   -3.9621    0.0532 H         1 UNK         0.1085 
     77 H77        27.2765   -5.6534   -0.2397 H         1 UNK         0.0836 
     78 H78        28.2628   -4.2625   -0.5477 H         1 UNK         0.0836 
     79 H79        30.0787   -6.3986   -3.0336 H         1 UNK         0.0731 
     80 H80        30.0595   -5.5764   -1.5009 H         1 UNK         0.0731 
     81 H81        30.1136   -5.1291   -5.1886 H         1 UNK         0.1312 
     82 H82        31.7660   -1.1823   -4.9833 H         1 UNK         0.1406 
     83 H83        30.4191   -3.1292   -1.4059 H         1 UNK         0.1631 
     84 H84        32.5686   -0.7096   -2.2146 H         1 UNK         0.0717 
     85 H85        31.0999   -0.8526   -1.2773 H         1 UNK         0.0717 
     86 H86        28.8555   -0.4466   -2.5752 H         1 UNK         0.0934 
     87 H87        28.5115    1.2447   -2.7173 H         1 UNK         0.0934 
     88 H88        29.4722   -0.2306   -5.2119 H         1 UNK         0.0739 
     89 H89        27.2278   -1.1804   -3.8702 H         1 UNK         0.3093 
     90 H90        25.2618   -2.1637   -6.6921 H         1 UNK         0.0818 
     91 H91        26.8282   -4.0233   -6.2573 H         1 UNK         0.0819 
     92 H92        26.7880   -3.7117   -4.5333 H         1 UNK         0.0819 
     93 H93        25.3386   -4.2800   -5.3613 H         1 UNK         0.0819 
     94 H94        24.9256   -2.1510   -3.8085 H         1 UNK         0.3041 
     95 H95        23.2495    0.9849   -3.6592 H         1 UNK         0.0784 
     96 H96        21.4299   -0.5360   -4.3748 H         1 UNK         0.0793 
     97 H97        22.0916   -1.8419   -3.4050 H         1 UNK         0.0793 
     98 H98        21.4563   -0.3958   -2.6243 H         1 UNK         0.0793 
     99 H99        23.8537   -1.1124   -1.7514 H         1 UNK         0.3024 
    100 H100       27.0721    0.1525   -0.8727 H         1 UNK         0.1171 
    101 H101       26.0821    0.4052    1.3853 H         1 UNK         0.0786 
    102 H102       25.5519    1.7185    0.3486 H         1 UNK         0.0786 
    103 H103       24.4535    0.3928    0.7063 H         1 UNK         0.0786 
    104 H104       25.4746   -1.8519    0.3430 H         1 UNK         0.2977 
    105 H105       26.4487    1.5436   -4.4812 H         1 UNK         0.3127 
    106 H106       27.2228    3.9944   -5.7190 H         1 UNK         0.0770 
    107 H107       24.4337    2.8256   -5.2108 H         1 UNK         0.0814 
    108 H108       24.7813    4.5010   -5.6159 H         1 UNK         0.0814 
    109 H109       25.3539    3.8320   -4.0953 H         1 UNK         0.0814 
    110 H110       25.4184    1.1531   -6.9979 H         1 UNK         0.2983 
    111 H111       24.8706    2.2983   -9.5507 H         1 UNK         0.0947 
    112 H112       24.1897   -0.0354  -10.1442 H         1 UNK         0.0806 
    113 H113       23.5129    0.4666   -8.6029 H         1 UNK         0.0806 
    114 H114       24.8915   -0.6288   -8.6444 H         1 UNK         0.0806 
    115 H115       27.3786   -0.0974   -8.5417 H         1 UNK         0.3000 
    116 H116       28.7255    0.1475  -11.2000 H         1 UNK         0.0850 
    117 H117       29.7820   -1.9976  -10.5592 H         1 UNK         0.0810 
    118 H118       28.0329   -2.1483  -10.4929 H         1 UNK         0.0810 
    119 H119       28.9618   -1.9806   -9.0048 H         1 UNK         0.0810 
    120 H120       29.1500    2.3886  -10.0696 H         1 UNK         0.3040 
    121 H121       30.9047    2.7022   -7.9416 H         1 UNK         0.0766 
    122 H122       29.5093    4.5185   -8.8776 H         1 UNK         0.0812 
    123 H123       30.4671    4.5354  -10.3607 H         1 UNK         0.0812 
    124 H124       31.1888    5.0255   -8.8336 H         1 UNK         0.0812 
    125 H125       31.7989    1.6455  -11.1067 H         1 UNK         0.3205 
    126 H126       34.6078    2.3622  -10.9948 H         1 UNK         0.0754 
    127 H127       33.4541    1.9448  -13.1583 H         1 UNK         0.0769 
    128 H128       33.1171    0.2786  -12.6846 H         1 UNK         0.0769 
    129 H129       34.7737    0.8083  -12.9407 H         1 UNK         0.0769 
    130 H130       32.6728   -0.2011   -9.5556 H         1 UNK         0.2981 
    131 H131       35.0079   -1.9242   -9.0253 H         1 UNK         0.0541 
    132 H132       36.0030   -2.0478   -6.9913 H         1 UNK         0.3459 
    133 H133       35.5497   -1.0092   -5.6654 H         1 UNK         0.3459 
    134 H134       32.0612   -2.3457   -9.1067 H         1 UNK         0.0612 
    135 H135       33.3557   -3.3882   -9.5520 H         1 UNK         0.0612 
    136 H136       30.3367   -3.7136   -7.2404 H         1 UNK         0.0624 
    137 H137       30.9590   -2.0878   -7.1028 H         1 UNK         0.0624 
@<TRIPOS>BOND
     1    1    2 1    
     2    1   72 1    
     3    1   73 1    
     4    1   74 1    
     5    2    3 2    
     6    2    4 am   BACKBONE|DICT|INTERRES
     7    4    5 1    
     8    4   75 1    
     9    5    6 1    
    10    5   35 1    
    11    5   76 1    
    12    6    7 1    
    13    6   77 1    
    14    6   78 1    
    15    7    8 1    
    16    8    9 1    
    17    8   79 1    
    18    8   80 1    
    19    9   10 ar   
    20    9   14 ar   
    21   10   11 ar   
    22   10   81 1    
    23   11   12 ar   
    24   11   71 1    
    25   12   13 ar   
    26   12   82 1    
    27   13   14 ar   
    28   13   15 1    
    29   14   83 1    
    30   15   16 1    
    31   15   84 1    
    32   15   85 1    
    33   16   17 1    
    34   17   18 1    
    35   17   86 1    
    36   17   87 1    
    37   18   19 1    
    38   18   37 1    
    39   18   88 1    
    40   19   20 am   BACKBONE|DICT|INTERRES
    41   19   89 1    
    42   20   21 2    
    43   20   22 1    
    44   22   23 1    
    45   22   24 1    
    46   22   90 1    
    47   23   91 1    
    48   23   92 1    
    49   23   93 1    
    50   24   25 am   BACKBONE|DICT|INTERRES
    51   24   94 1    
    52   25   26 2    
    53   25   27 1    
    54   27   28 1    
    55   27   29 1    
    56   27   95 1    
    57   28   96 1    
    58   28   97 1    
    59   28   98 1    
    60   29   30 am   BACKBONE|DICT|INTERRES
    61   29   99 1    
    62   30   31 2    
    63   30   32 1    
    64   32   33 1    
    65   32   34 1    
    66   32  100 1    
    67   33  101 1    
    68   33  102 1    
    69   33  103 1    
    70   34   35 am   BACKBONE|DICT|INTERRES
    71   34  104 1    
    72   35   36 2    
    73   37   38 2    
    74   37   39 am   BACKBONE|DICT|INTERRES
    75   39   40 1    
    76   39  105 1    
    77   40   41 1    
    78   40   42 1    
    79   40  106 1    
    80   41  107 1    
    81   41  108 1    
    82   41  109 1    
    83   42   43 2    
    84   42   44 am   BACKBONE|DICT|INTERRES
    85   44   45 1    
    86   44  110 1    
    87   45   46 1    
    88   45   47 1    
    89   45  111 1    
    90   46  112 1    
    91   46  113 1    
    92   46  114 1    
    93   47   48 2    
    94   47   49 am   BACKBONE|DICT|INTERRES
    95   49   50 1    
    96   49  115 1    
    97   50   51 1    
    98   50   52 1    
    99   50  116 1    
   100   51  117 1    
   101   51  118 1    
   102   51  119 1    
   103   52   53 2    
   104   52   54 am   BACKBONE|DICT|INTERRES
   105   54   55 1    
   106   54  120 1    
   107   55   56 1    
   108   55   57 1    
   109   55  121 1    
   110   56  122 1    
   111   56  123 1    
   112   56  124 1    
   113   57   58 2    
   114   57   59 am   BACKBONE|DICT|INTERRES
   115   59   60 1    
   116   59  125 1    
   117   60   61 1    
   118   60   62 1    
   119   60  126 1    
   120   61  127 1    
   121   61  128 1    
   122   61  129 1    
   123   62   63 2    
   124   62   64 am   BACKBONE|DICT|INTERRES
   125   64   65 1    
   126   64  130 1    
   127   65   66 1    
   128   65   69 1    
   129   65  131 1    
   130   66   67 am   BACKBONE|DICT|INTERRES
   131   66   68 2    
   132   67  132 1    
   133   67  133 1    
   134   69   70 1    
   135   69  134 1    
   136   69  135 1    
   137   70   71 1    
   138   71  136 1    
   139   71  137 1    
@<TRIPOS>SUBSTRUCTURE
     1 UNK         1 GROUP             0       ****    0 ROOT    
