@<TRIPOS>MOLECULE
3R137
137   139    1
SMALL
USER_CHARGES


@<TRIPOS>ATOM
      1 CA         25.5381   -6.1045   -3.2790 C.3       0 UNK        -0.2020 
      2 C          25.7992   -5.0974   -2.1692 C.2       0 UNK         0.4855 
      3 O          24.8826   -4.7735   -1.4137 O.2       0 UNK        -0.5197 
      4 N          27.0443   -4.6212   -2.0459 N.am      1 UNK        -0.4892 
      5 CA         27.4769   -3.7185   -0.9762 C.3       1 UNK         0.0835 
      6 C6         28.9902   -3.8391   -0.6315 C.3       12 UNK        -0.0855 
      7 S7         29.6534   -5.5479   -0.7240 S.3       12 UNK        -0.2931 
      8 C8         31.2182   -5.3687   -1.6570 C.3       12 UNK         0.0378 
      9 C9         31.0815   -4.4965   -2.8991 C.ar      12 UNK        -0.0802 
     10 C10        31.6308   -3.2098   -2.9048 C.ar      12 UNK        -0.0944 
     11 C11        31.4420   -2.3556   -3.9935 C.ar      12 UNK        -0.0787 
     12 C12        30.7130   -2.8140   -5.0951 C.ar      12 UNK        -0.0862 
     13 C13        30.1845   -4.1089   -5.1195 C.ar      12 UNK        -0.0733 
     14 C14        30.3775   -4.9504   -4.0190 C.ar      12 UNK        -0.0832 
     15 C15        29.4137   -4.5929   -6.3414 C.3       12 UNK         0.0240 
     16 S16        27.6560   -4.9479   -6.0046 S.3       12 UNK        -0.2522 
     17 C17        27.0157   -3.3760   -5.3352 C.3       12 UNK        -0.0967 
     18 CA         26.6849   -2.3276   -6.4298 C.3       5 UNK         0.0660 
     19 N          25.4051   -1.6448   -6.2007 N.am      5 UNK        -0.4015 
     20 C          24.8099   -0.8562   -7.1083 C.2       4 UNK         0.4946 
     21 O          25.2671   -0.6344   -8.2289 O.2       4 UNK        -0.5353 
     22 CA         23.4966   -0.1707   -6.7016 C.3       4 UNK         0.0277 
     23 CB         22.3064   -1.1203   -6.9122 C.3       4 UNK        -0.1981 
     24 N          23.4675    0.3567   -5.3345 N.am      4 UNK        -0.4209 
     25 C          24.3497    1.2122   -4.7982 C.2       3 UNK         0.4942 
     26 O          25.3880    1.5701   -5.3548 O.2       3 UNK        -0.5208 
     27 CA         24.0067    1.8021   -3.4182 C.3       3 UNK         0.0250 
     28 CB         22.5120    1.6903   -3.0351 C.3       3 UNK        -0.1990 
     29 N          24.8571    1.2695   -2.3498 N.am      3 UNK        -0.4232 
     30 C          24.9611   -0.0071   -1.9533 C.2       2 UNK         0.4993 
     31 O          24.3693   -0.9505   -2.4848 O.2       2 UNK        -0.5286 
     32 CA         25.8347   -0.2379   -0.7047 C.3       2 UNK         0.0209 
     33 CB         25.0828    0.2006    0.5646 C.3       2 UNK        -0.1931 
     34 N          26.2578   -1.6304   -0.5351 N.am      2 UNK        -0.4546 
     35 C          27.1093   -2.2671   -1.3470 C.2       1 UNK         0.5154 
     36 O          27.6242   -1.7425   -2.3378 O.2       1 UNK        -0.5181 
     37 C          27.8305   -1.3137   -6.5878 C.2       5 UNK         0.5014 
     38 O          28.5806   -1.3871   -7.5615 O.2       5 UNK        -0.5248 
     39 N          27.9194   -0.3701   -5.6392 N.am      6 UNK        -0.4434 
     40 CA         28.9091    0.7060   -5.6217 C.3       6 UNK         0.0363 
     41 CB         28.7842    1.5025   -4.3135 C.3       6 UNK        -0.1936 
     42 C          28.8097    1.6293   -6.8430 C.2       6 UNK         0.5081 
     43 O          29.8437    2.0170   -7.3870 O.2       6 UNK        -0.5248 
     44 N          27.5756    1.9279   -7.2697 N.am      7 UNK        -0.4718 
     45 CA         27.2757    2.6757   -8.4894 C.3       7 UNK         0.0273 
     46 CB         25.7819    3.0371   -8.5180 C.3       7 UNK        -0.1935 
     47 C          27.6847    1.9180   -9.7640 C.2       7 UNK         0.5018 
     48 O          28.3314    2.5099  -10.6282 O.2       7 UNK        -0.5186 
     49 N          27.3186    0.6302   -9.8555 N.am      8 UNK        -0.4240 
     50 CA         27.6185   -0.2400  -10.9971 C.3       8 UNK         0.0235 
     51 CB         26.8307   -1.5545  -10.8750 C.3       8 UNK        -0.2000 
     52 C          29.1185   -0.5264  -11.1665 C.2       8 UNK         0.4941 
     53 O          29.6224   -0.4568  -12.2882 O.2       8 UNK        -0.5273 
     54 N          29.8052   -0.8348  -10.0582 N.am      9 UNK        -0.4262 
     55 CA         31.2465   -1.1000  -10.0313 C.3       9 UNK         0.0264 
     56 CB         31.5852   -1.8921   -8.7611 C.3       9 UNK        -0.1955 
     57 C          32.1065    0.1741  -10.1044 C.2       9 UNK         0.5031 
     58 O          33.2980    0.0648  -10.3982 O.2       9 UNK        -0.5390 
     59 N          31.5017    1.3389   -9.8245 N.am      10 UNK        -0.4204 
     60 CA         32.1183    2.6642   -9.7139 C.3       10 UNK         0.0237 
     61 CB         32.6762    3.1387  -11.0731 C.3       10 UNK        -0.1985 
     62 C          33.1509    2.7145   -8.5721 C.2       10 UNK         0.4970 
     63 O          34.3013    3.1006   -8.7903 O.2       10 UNK        -0.4914 
     64 N          32.7130    2.3105   -7.3720 N.am      11 UNK        -0.4285 
     65 CA         33.5233    2.3158   -6.1415 C.3       11 UNK         0.1007 
     66 C          33.8555    3.7367   -5.5963 C.2       11 UNK         0.5703 
     67 N          33.1578    4.7896   -6.0074 N.am      11 UNK        -0.7361 
     68 O          34.7685    3.8848   -4.7873 O.2       11 UNK        -0.4986 
     69 C69        32.8930    1.4467   -5.0218 C.3       12 UNK        -0.0947 
     70 S70        32.7281   -0.3151   -5.4574 S.3       12 UNK        -0.2240 
     71 C71        31.9568   -0.9204   -3.9190 C.3       12 UNK         0.0194 
     72 H72        25.0014   -6.9665   -2.8837 H         1 UNK         0.0906 
     73 H73        24.9290   -5.6571   -4.0637 H         1 UNK         0.0906 
     74 H74        26.4646   -6.4661   -3.7238 H         1 UNK         0.0906 
     75 H75        27.7671   -4.8981   -2.6946 H         1 UNK         0.3140 
     76 H76        26.9308   -3.9944   -0.0710 H         1 UNK         0.1085 
     77 H77        29.5785   -3.1804   -1.2662 H         1 UNK         0.0836 
     78 H78        29.1612   -3.4702    0.3813 H         1 UNK         0.0836 
     79 H79        31.9774   -4.9623   -0.9867 H         1 UNK         0.0731 
     80 H80        31.5719   -6.3588   -1.9478 H         1 UNK         0.0731 
     81 H81        32.1671   -2.8549   -2.0352 H         1 UNK         0.1312 
     82 H82        30.5489   -2.1548   -5.9333 H         1 UNK         0.1406 
     83 H83        29.9575   -5.9473   -4.0235 H         1 UNK         0.1631 
     84 H84        29.8852   -5.5024   -6.7158 H         1 UNK         0.0717 
     85 H85        29.4757   -3.8692   -7.1540 H         1 UNK         0.0717 
     86 H86        26.1099   -3.6286   -4.7850 H         1 UNK         0.0934 
     87 H87        27.7039   -2.9966   -4.5784 H         1 UNK         0.0934 
     88 H88        26.5826   -2.8441   -7.3871 H         1 UNK         0.0739 
     89 H89        24.9753   -1.7473   -5.2921 H         1 UNK         0.3093 
     90 H90        23.3656    0.6834   -7.3691 H         1 UNK         0.0818 
     91 H91        21.3566   -0.6078   -6.7584 H         1 UNK         0.0819 
     92 H92        22.2968   -1.5146   -7.9295 H         1 UNK         0.0819 
     93 H93        22.3427   -1.9726   -6.2325 H         1 UNK         0.0819 
     94 H94        22.6674    0.1041   -4.7727 H         1 UNK         0.3041 
     95 H95        24.2393    2.8659   -3.4890 H         1 UNK         0.0784 
     96 H96        21.8730    2.1193   -3.8084 H         1 UNK         0.0793 
     97 H97        22.1958    0.6589   -2.8757 H         1 UNK         0.0793 
     98 H98        22.3061    2.2381   -2.1154 H         1 UNK         0.0793 
     99 H99        25.4042    1.9632   -1.8590 H         1 UNK         0.3024 
    100 H100       26.7361    0.3709   -0.8087 H         1 UNK         0.1171 
    101 H101       24.1741   -0.3840    0.7154 H         1 UNK         0.0786 
    102 H102       24.7879    1.2494    0.5100 H         1 UNK         0.0786 
    103 H103       25.7045    0.0902    1.4534 H         1 UNK         0.0786 
    104 H104       25.8329   -2.1414    0.2251 H         1 UNK         0.2977 
    105 H105       27.2455   -0.3735   -4.8869 H         1 UNK         0.3127 
    106 H106       29.8926    0.2398   -5.6533 H         1 UNK         0.0770 
    107 H107       28.9177    0.8598   -3.4430 H         1 UNK         0.0814 
    108 H108       27.8102    1.9847   -4.2253 H         1 UNK         0.0814 
    109 H109       29.5399    2.2867   -4.2597 H         1 UNK         0.0814 
    110 H110       26.7847    1.6097   -6.7149 H         1 UNK         0.2983 
    111 H111       27.8497    3.6045   -8.4588 H         1 UNK         0.0947 
    112 H112       25.5386    3.6223   -9.4058 H         1 UNK         0.0806 
    113 H113       25.5025    3.6330   -7.6489 H         1 UNK         0.0806 
    114 H114       25.1503    2.1484   -8.5287 H         1 UNK         0.0806 
    115 H115       26.7546    0.2229   -9.1129 H         1 UNK         0.3000 
    116 H116       27.2793    0.2730  -11.8996 H         1 UNK         0.0850 
    117 H117       27.0414   -2.2183  -11.7145 H         1 UNK         0.0810 
    118 H118       25.7560   -1.3718  -10.8686 H         1 UNK         0.0810 
    119 H119       27.0827   -2.0921   -9.9599 H         1 UNK         0.0810 
    120 H120       29.3060   -0.9207   -9.1723 H         1 UNK         0.3040 
    121 H121       31.5023   -1.7180  -10.8946 H         1 UNK         0.0766 
    122 H122       32.6473   -2.1369   -8.7182 H         1 UNK         0.0812 
    123 H123       31.0319   -2.8295   -8.7160 H         1 UNK         0.0812 
    124 H124       31.3477   -1.3138   -7.8696 H         1 UNK         0.0812 
    125 H125       30.5271    1.3002   -9.5547 H         1 UNK         0.3205 
    126 H126       31.3163    3.3493   -9.4342 H         1 UNK         0.0754 
    127 H127       33.0321    4.1676  -11.0090 H         1 UNK         0.0769 
    128 H128       31.9086    3.1085  -11.8465 H         1 UNK         0.0769 
    129 H129       33.5141    2.5267  -11.4082 H         1 UNK         0.0769 
    130 H130       31.7356    2.0465   -7.2769 H         1 UNK         0.2981 
    131 H131       34.4853    1.8662   -6.3951 H         1 UNK         0.0541 
    132 H132       32.4029    4.6780   -6.6644 H         1 UNK         0.3459 
    133 H133       33.3865    5.7035   -5.6495 H         1 UNK         0.3459 
    134 H134       33.4969    1.4974   -4.1135 H         1 UNK         0.0612 
    135 H135       31.9082    1.8346   -4.7576 H         1 UNK         0.0612 
    136 H136       32.6880   -0.8206   -3.1153 H         1 UNK         0.0624 
    137 H137       31.1203   -0.2747   -3.6532 H         1 UNK         0.0624 
@<TRIPOS>BOND
     1    1    2 1    
     2    1   72 1    
     3    1   73 1    
     4    1   74 1    
     5    2    3 2    
     6    2    4 am   BACKBONE|DICT|INTERRES
     7    4    5 1    
     8    4   75 1    
     9    5    6 1    
    10    5   35 1    
    11    5   76 1    
    12    6    7 1    
    13    6   77 1    
    14    6   78 1    
    15    7    8 1    
    16    8    9 1    
    17    8   79 1    
    18    8   80 1    
    19    9   10 ar   
    20    9   14 ar   
    21   10   11 ar   
    22   10   81 1    
    23   11   12 ar   
    24   11   71 1    
    25   12   13 ar   
    26   12   82 1    
    27   13   14 ar   
    28   13   15 1    
    29   14   83 1    
    30   15   16 1    
    31   15   84 1    
    32   15   85 1    
    33   16   17 1    
    34   17   18 1    
    35   17   86 1    
    36   17   87 1    
    37   18   19 1    
    38   18   37 1    
    39   18   88 1    
    40   19   20 am   BACKBONE|DICT|INTERRES
    41   19   89 1    
    42   20   21 2    
    43   20   22 1    
    44   22   23 1    
    45   22   24 1    
    46   22   90 1    
    47   23   91 1    
    48   23   92 1    
    49   23   93 1    
    50   24   25 am   BACKBONE|DICT|INTERRES
    51   24   94 1    
    52   25   26 2    
    53   25   27 1    
    54   27   28 1    
    55   27   29 1    
    56   27   95 1    
    57   28   96 1    
    58   28   97 1    
    59   28   98 1    
    60   29   30 am   BACKBONE|DICT|INTERRES
    61   29   99 1    
    62   30   31 2    
    63   30   32 1    
    64   32   33 1    
    65   32   34 1    
    66   32  100 1    
    67   33  101 1    
    68   33  102 1    
    69   33  103 1    
    70   34   35 am   BACKBONE|DICT|INTERRES
    71   34  104 1    
    72   35   36 2    
    73   37   38 2    
    74   37   39 am   BACKBONE|DICT|INTERRES
    75   39   40 1    
    76   39  105 1    
    77   40   41 1    
    78   40   42 1    
    79   40  106 1    
    80   41  107 1    
    81   41  108 1    
    82   41  109 1    
    83   42   43 2    
    84   42   44 am   BACKBONE|DICT|INTERRES
    85   44   45 1    
    86   44  110 1    
    87   45   46 1    
    88   45   47 1    
    89   45  111 1    
    90   46  112 1    
    91   46  113 1    
    92   46  114 1    
    93   47   48 2    
    94   47   49 am   BACKBONE|DICT|INTERRES
    95   49   50 1    
    96   49  115 1    
    97   50   51 1    
    98   50   52 1    
    99   50  116 1    
   100   51  117 1    
   101   51  118 1    
   102   51  119 1    
   103   52   53 2    
   104   52   54 am   BACKBONE|DICT|INTERRES
   105   54   55 1    
   106   54  120 1    
   107   55   56 1    
   108   55   57 1    
   109   55  121 1    
   110   56  122 1    
   111   56  123 1    
   112   56  124 1    
   113   57   58 2    
   114   57   59 am   BACKBONE|DICT|INTERRES
   115   59   60 1    
   116   59  125 1    
   117   60   61 1    
   118   60   62 1    
   119   60  126 1    
   120   61  127 1    
   121   61  128 1    
   122   61  129 1    
   123   62   63 2    
   124   62   64 am   BACKBONE|DICT|INTERRES
   125   64   65 1    
   126   64  130 1    
   127   65   66 1    
   128   65   69 1    
   129   65  131 1    
   130   66   67 am   BACKBONE|DICT|INTERRES
   131   66   68 2    
   132   67  132 1    
   133   67  133 1    
   134   69   70 1    
   135   69  134 1    
   136   69  135 1    
   137   70   71 1    
   138   71  136 1    
   139   71  137 1    
@<TRIPOS>SUBSTRUCTURE
     1 UNK         1 GROUP             0       ****    0 ROOT    
