@<TRIPOS>MOLECULE
3R137
137   139    1
SMALL
USER_CHARGES


@<TRIPOS>ATOM
      1 CA         25.7631   -3.9932    2.6325 C.3       0 UNK        -0.2020 
      2 C          26.1154   -3.1875    1.3916 C.2       0 UNK         0.4855 
      3 O          25.7380   -2.0195    1.2890 O.2       0 UNK        -0.5197 
      4 N          26.8228   -3.8019    0.4354 N.am      1 UNK        -0.4892 
      5 CA         27.2940   -3.1928   -0.8178 C.3       1 UNK         0.0835 
      6 C6         28.5542   -3.9203   -1.3548 C.3       12 UNK        -0.0855 
      7 S7         29.9495   -3.7910   -0.1815 S.3       12 UNK        -0.2931 
      8 C8         31.4010   -3.7767   -1.2879 C.3       12 UNK         0.0378 
      9 C9         31.3771   -2.6479   -2.3133 C.ar      12 UNK        -0.0802 
     10 C10        31.6320   -2.9293   -3.6589 C.ar      12 UNK        -0.0944 
     11 C11        31.6142   -1.9102   -4.6147 C.ar      12 UNK        -0.0787 
     12 C12        31.3191   -0.6031   -4.2206 C.ar      12 UNK        -0.0862 
     13 C13        31.0546   -0.3067   -2.8788 C.ar      12 UNK        -0.0733 
     14 C14        31.1086   -1.3299   -1.9273 C.ar      12 UNK        -0.0832 
     15 C15        30.7128    1.1210   -2.4646 C.3       12 UNK         0.0240 
     16 S16        29.1091    1.2721   -1.5955 S.3       12 UNK        -0.2522 
     17 C17        27.9556    0.2348   -2.5624 C.3       12 UNK        -0.0967 
     18 CA         27.9261    0.5079   -4.0845 C.3       5 UNK         0.0660 
     19 N          27.4246   -0.6541   -4.8173 N.am      5 UNK        -0.4015 
     20 C          27.7322   -0.9346   -6.0891 C.2       4 UNK         0.4946 
     21 O          28.4758   -0.2442   -6.7847 O.2       4 UNK        -0.5353 
     22 CA         27.0706   -2.1789   -6.7001 C.3       4 UNK         0.0277 
     23 CB         27.8805   -3.4402   -6.3594 C.3       4 UNK        -0.1981 
     24 N          25.6790   -2.3444   -6.2723 N.am      4 UNK        -0.4209 
     25 C          24.6933   -1.4950   -6.5986 C.2       3 UNK         0.4942 
     26 O          24.8524   -0.5084   -7.3156 O.2       3 UNK        -0.5208 
     27 CA         23.3050   -1.7549   -5.9922 C.3       3 UNK         0.0250 
     28 CB         22.4956   -2.7002   -6.8939 C.3       3 UNK        -0.1990 
     29 N          23.3270   -2.2834   -4.6253 N.am      3 UNK        -0.4232 
     30 C          23.9331   -1.7199   -3.5701 C.2       2 UNK         0.4993 
     31 O          24.6106   -0.6912   -3.6385 O.2       2 UNK        -0.5286 
     32 CA         23.7606   -2.4166   -2.2058 C.3       2 UNK         0.0209 
     33 CB         23.0701   -3.7986   -2.2799 C.3       2 UNK        -0.1931 
     34 N          25.0218   -2.5319   -1.4667 N.am      2 UNK        -0.4546 
     35 C          26.1625   -3.1086   -1.8706 C.2       1 UNK         0.5154 
     36 O          26.3284   -3.5735   -3.0007 O.2       1 UNK        -0.5181 
     37 C          27.1605    1.7898   -4.4541 C.2       5 UNK         0.5014 
     38 O          27.7757    2.8540   -4.5301 O.2       5 UNK        -0.5248 
     39 N          25.8526    1.6663   -4.7272 N.am      6 UNK        -0.4434 
     40 CA         25.0180    2.7426   -5.2666 C.3       6 UNK         0.0363 
     41 CB         23.5458    2.3032   -5.2811 C.3       6 UNK        -0.1936 
     42 C          25.4710    3.1889   -6.6689 C.2       6 UNK         0.5081 
     43 O          25.5177    4.3907   -6.9331 O.2       6 UNK        -0.5248 
     44 N          25.8151    2.2212   -7.5314 N.am      7 UNK        -0.4718 
     45 CA         26.3856    2.4629   -8.8574 C.3       7 UNK         0.0273 
     46 CB         26.3086    1.1765   -9.6965 C.3       7 UNK        -0.1935 
     47 C          27.8351    2.9685   -8.7964 C.2       7 UNK         0.5018 
     48 O          28.1939    3.8527   -9.5752 O.2       7 UNK        -0.5186 
     49 N          28.6499    2.3685   -7.9135 N.am      8 UNK        -0.4240 
     50 CA         30.0914    2.5666   -7.6904 C.3       8 UNK         0.0235 
     51 CB         30.4205    4.0154   -7.2860 C.3       8 UNK        -0.2000 
     52 C          30.9667    2.0900   -8.8628 C.2       8 UNK         0.4941 
     53 O          31.9276    1.3498   -8.6457 O.2       8 UNK        -0.5273 
     54 N          30.5798    2.4483  -10.0943 N.am      9 UNK        -0.4262 
     55 CA         31.1773    2.0288  -11.3679 C.3       9 UNK         0.0264 
     56 CB         30.4770    2.7804  -12.5119 C.3       9 UNK        -0.1955 
     57 C          31.1486    0.5076  -11.6231 C.2       9 UNK         0.5031 
     58 O          31.8304    0.0391  -12.5354 O.2       9 UNK        -0.5390 
     59 N          30.3926   -0.2376  -10.8035 N.am      10 UNK        -0.4204 
     60 CA         30.3925   -1.6984  -10.7284 C.3       10 UNK         0.0237 
     61 CB         29.2814   -2.1487   -9.7672 C.3       10 UNK        -0.1985 
     62 C          31.7465   -2.2940  -10.2945 C.2       10 UNK         0.4970 
     63 O          32.0133   -3.4477  -10.6341 O.2       10 UNK        -0.4914 
     64 N          32.5753   -1.5180   -9.5801 N.am      11 UNK        -0.4285 
     65 CA         33.9490   -1.8994   -9.2226 C.3       11 UNK         0.1007 
     66 C          34.9715   -0.7280   -9.2356 C.2       11 UNK         0.5703 
     67 N          34.5592    0.5344   -9.2307 N.am      11 UNK        -0.7361 
     68 O          36.1749   -0.9727   -9.2834 O.2       11 UNK        -0.4986 
     69 C69        34.0113   -2.7663   -7.9361 C.3       12 UNK        -0.0947 
     70 S70        33.6967   -1.8533   -6.3875 S.3       12 UNK        -0.2240 
     71 C71        31.9456   -2.2176   -6.0661 C.3       12 UNK         0.0194 
     72 H72        26.1613   -5.0067    2.5879 H         1 UNK         0.0906 
     73 H73        26.1681   -3.5090    3.5207 H         1 UNK         0.0906 
     74 H74        24.6810   -4.0581    2.7431 H         1 UNK         0.0906 
     75 H75        27.0927   -4.7664    0.5686 H         1 UNK         0.3140 
     76 H76        27.5813   -2.1617   -0.6006 H         1 UNK         0.1085 
     77 H77        28.8531   -3.4953   -2.3143 H         1 UNK         0.0836 
     78 H78        28.3456   -4.9750   -1.5431 H         1 UNK         0.0836 
     79 H79        31.4639   -4.7472   -1.7830 H         1 UNK         0.0731 
     80 H80        32.3034   -3.6808   -0.6829 H         1 UNK         0.0731 
     81 H81        31.8591   -3.9418   -3.9640 H         1 UNK         0.1312 
     82 H82        31.3028    0.1821   -4.9643 H         1 UNK         0.1406 
     83 H83        30.9127   -1.1036   -0.8878 H         1 UNK         0.1631 
     84 H84        30.7028    1.7854   -3.3302 H         1 UNK         0.0717 
     85 H85        31.5003    1.4950   -1.8092 H         1 UNK         0.0717 
     86 H86        28.2648   -0.7964   -2.3922 H         1 UNK         0.0934 
     87 H87        26.9559    0.3165   -2.1305 H         1 UNK         0.0934 
     88 H88        28.9449    0.6709   -4.4289 H         1 UNK         0.0739 
     89 H89        26.7472   -1.2360   -4.3417 H         1 UNK         0.3093 
     90 H90        27.0716   -2.0535   -7.7846 H         1 UNK         0.0818 
     91 H91        28.9165   -3.3382   -6.6857 H         1 UNK         0.0819 
     92 H92        27.8968   -3.6352   -5.2862 H         1 UNK         0.0819 
     93 H93        27.4712   -4.3205   -6.8549 H         1 UNK         0.0819 
     94 H94        25.4737   -3.1146   -5.6506 H         1 UNK         0.3041 
     95 H95        22.7828   -0.7977   -5.9549 H         1 UNK         0.0784 
     96 H96        22.4459   -2.3179   -7.9147 H         1 UNK         0.0793 
     97 H97        22.9401   -3.6953   -6.9401 H         1 UNK         0.0793 
     98 H98        21.4696   -2.8057   -6.5408 H         1 UNK         0.0793 
     99 H99        22.8077   -3.1348   -4.4674 H         1 UNK         0.3024 
    100 H100       23.1204   -1.7566   -1.6181 H         1 UNK         0.1171 
    101 H101       22.9682   -4.2354   -1.2862 H         1 UNK         0.0786 
    102 H102       22.0628   -3.7233   -2.6915 H         1 UNK         0.0786 
    103 H103       23.6334   -4.5061   -2.8902 H         1 UNK         0.0786 
    104 H104       25.0179   -2.1620   -0.5196 H         1 UNK         0.2977 
    105 H105       25.4008    0.7705   -4.5567 H         1 UNK         0.3127 
    106 H106       25.1110    3.5997   -4.5961 H         1 UNK         0.0770 
    107 H107       23.3786    1.4801   -5.9750 H         1 UNK         0.0814 
    108 H108       22.8996    3.1250   -5.5920 H         1 UNK         0.0814 
    109 H109       23.2143    1.9837   -4.2928 H         1 UNK         0.0814 
    110 H110       25.6617    1.2503   -7.2706 H         1 UNK         0.2983 
    111 H111       25.7870    3.2303   -9.3534 H         1 UNK         0.0947 
    112 H112       26.8607    0.3572   -9.2336 H         1 UNK         0.0806 
    113 H113       26.7246    1.3314  -10.6930 H         1 UNK         0.0806 
    114 H114       25.2763    0.8498   -9.8235 H         1 UNK         0.0806 
    115 H115       28.2682    1.5838   -7.3915 H         1 UNK         0.3000 
    116 H116       30.3401    1.9283   -6.8408 H         1 UNK         0.0850 
    117 H117       29.8381    4.3214   -6.4165 H         1 UNK         0.0810 
    118 H118       30.2204    4.7240   -8.0900 H         1 UNK         0.0810 
    119 H119       31.4743    4.1140   -7.0225 H         1 UNK         0.0810 
    120 H120       29.7648    3.0562  -10.1503 H         1 UNK         0.3040 
    121 H121       32.2273    2.3276  -11.3496 H         1 UNK         0.0766 
    122 H122       30.9155    2.5238  -13.4774 H         1 UNK         0.0812 
    123 H123       30.5704    3.8601  -12.3933 H         1 UNK         0.0812 
    124 H124       29.4144    2.5389  -12.5607 H         1 UNK         0.0812 
    125 H125       29.8692    0.2474  -10.0903 H         1 UNK         0.3205 
    126 H126       30.1674   -2.0829  -11.7253 H         1 UNK         0.0754 
    127 H127       29.2203   -3.2369   -9.7209 H         1 UNK         0.0769 
    128 H128       28.3049   -1.7834  -10.0858 H         1 UNK         0.0769 
    129 H129       29.4631   -1.7901   -8.7538 H         1 UNK         0.0769 
    130 H130       32.2905   -0.5809   -9.3210 H         1 UNK         0.2981 
    131 H131       34.3094   -2.5379  -10.0319 H         1 UNK         0.0541 
    132 H132       33.5850    0.7857   -9.0869 H         1 UNK         0.3459 
    133 H133       35.2538    1.2631   -9.2560 H         1 UNK         0.3459 
    134 H134       33.3206   -3.6070   -8.0127 H         1 UNK         0.0612 
    135 H135       35.0016   -3.2164   -7.8497 H         1 UNK         0.0612 
    136 H136       31.3196   -1.6237   -6.7345 H         1 UNK         0.0624 
    137 H137       31.7350   -3.2652   -6.2859 H         1 UNK         0.0624 
@<TRIPOS>BOND
     1    1    2 1    
     2    1   72 1    
     3    1   73 1    
     4    1   74 1    
     5    2    3 2    
     6    2    4 am   BACKBONE|DICT|INTERRES
     7    4    5 1    
     8    4   75 1    
     9    5    6 1    
    10    5   35 1    
    11    5   76 1    
    12    6    7 1    
    13    6   77 1    
    14    6   78 1    
    15    7    8 1    
    16    8    9 1    
    17    8   79 1    
    18    8   80 1    
    19    9   10 ar   
    20    9   14 ar   
    21   10   11 ar   
    22   10   81 1    
    23   11   12 ar   
    24   11   71 1    
    25   12   13 ar   
    26   12   82 1    
    27   13   14 ar   
    28   13   15 1    
    29   14   83 1    
    30   15   16 1    
    31   15   84 1    
    32   15   85 1    
    33   16   17 1    
    34   17   18 1    
    35   17   86 1    
    36   17   87 1    
    37   18   19 1    
    38   18   37 1    
    39   18   88 1    
    40   19   20 am   BACKBONE|DICT|INTERRES
    41   19   89 1    
    42   20   21 2    
    43   20   22 1    
    44   22   23 1    
    45   22   24 1    
    46   22   90 1    
    47   23   91 1    
    48   23   92 1    
    49   23   93 1    
    50   24   25 am   BACKBONE|DICT|INTERRES
    51   24   94 1    
    52   25   26 2    
    53   25   27 1    
    54   27   28 1    
    55   27   29 1    
    56   27   95 1    
    57   28   96 1    
    58   28   97 1    
    59   28   98 1    
    60   29   30 am   BACKBONE|DICT|INTERRES
    61   29   99 1    
    62   30   31 2    
    63   30   32 1    
    64   32   33 1    
    65   32   34 1    
    66   32  100 1    
    67   33  101 1    
    68   33  102 1    
    69   33  103 1    
    70   34   35 am   BACKBONE|DICT|INTERRES
    71   34  104 1    
    72   35   36 2    
    73   37   38 2    
    74   37   39 am   BACKBONE|DICT|INTERRES
    75   39   40 1    
    76   39  105 1    
    77   40   41 1    
    78   40   42 1    
    79   40  106 1    
    80   41  107 1    
    81   41  108 1    
    82   41  109 1    
    83   42   43 2    
    84   42   44 am   BACKBONE|DICT|INTERRES
    85   44   45 1    
    86   44  110 1    
    87   45   46 1    
    88   45   47 1    
    89   45  111 1    
    90   46  112 1    
    91   46  113 1    
    92   46  114 1    
    93   47   48 2    
    94   47   49 am   BACKBONE|DICT|INTERRES
    95   49   50 1    
    96   49  115 1    
    97   50   51 1    
    98   50   52 1    
    99   50  116 1    
   100   51  117 1    
   101   51  118 1    
   102   51  119 1    
   103   52   53 2    
   104   52   54 am   BACKBONE|DICT|INTERRES
   105   54   55 1    
   106   54  120 1    
   107   55   56 1    
   108   55   57 1    
   109   55  121 1    
   110   56  122 1    
   111   56  123 1    
   112   56  124 1    
   113   57   58 2    
   114   57   59 am   BACKBONE|DICT|INTERRES
   115   59   60 1    
   116   59  125 1    
   117   60   61 1    
   118   60   62 1    
   119   60  126 1    
   120   61  127 1    
   121   61  128 1    
   122   61  129 1    
   123   62   63 2    
   124   62   64 am   BACKBONE|DICT|INTERRES
   125   64   65 1    
   126   64  130 1    
   127   65   66 1    
   128   65   69 1    
   129   65  131 1    
   130   66   67 am   BACKBONE|DICT|INTERRES
   131   66   68 2    
   132   67  132 1    
   133   67  133 1    
   134   69   70 1    
   135   69  134 1    
   136   69  135 1    
   137   70   71 1    
   138   71  136 1    
   139   71  137 1    
@<TRIPOS>SUBSTRUCTURE
     1 UNK         1 GROUP             0       ****    0 ROOT    
