@<TRIPOS>MOLECULE
3R137
137   139    1
SMALL
USER_CHARGES


@<TRIPOS>ATOM
      1 CA         26.1284   -6.4167   -5.4131 C.3       0 UNK        -0.2020 
      2 C          26.3284   -5.7623   -4.0550 C.2       0 UNK         0.4855 
      3 O          25.3608   -5.5808   -3.3153 O.2       0 UNK        -0.5197 
      4 N          27.5738   -5.3915   -3.7271 N.am      1 UNK        -0.4892 
      5 CA         27.9662   -4.7185   -2.4831 C.3       1 UNK         0.0835 
      6 C6         29.5034   -4.5543   -2.4077 C.3       12 UNK        -0.0855 
      7 S7         30.0784   -4.1769   -0.7180 S.3       12 UNK        -0.2931 
      8 C8         31.5881   -3.2104   -1.0497 C.3       12 UNK         0.0378 
      9 C9         31.2935   -1.8734   -1.7181 C.ar      12 UNK        -0.0802 
     10 C10        31.7713   -1.6064   -3.0051 C.ar      12 UNK        -0.0944 
     11 C11        31.5131   -0.3758   -3.6162 C.ar      12 UNK        -0.0787 
     12 C12        30.7861    0.5955   -2.9242 C.ar      12 UNK        -0.0862 
     13 C13        30.2875    0.3378   -1.6424 C.ar      12 UNK        -0.0733 
     14 C14        30.5542   -0.8972   -1.0435 C.ar      12 UNK        -0.0832 
     15 C15        29.4675    1.3781   -0.8827 C.3       12 UNK         0.0240 
     16 S16        28.3155    2.3391   -1.9247 S.3       12 UNK        -0.2522 
     17 C17        27.3097    1.0325   -2.7097 C.3       12 UNK        -0.0967 
     18 CA         27.3737    1.0718   -4.2603 C.3       5 UNK         0.0660 
     19 N          27.0686   -0.2466   -4.8350 N.am      5 UNK        -0.4015 
     20 C          26.9767   -0.5629   -6.1363 C.2       4 UNK         0.4946 
     21 O          27.1551    0.2370   -7.0528 O.2       4 UNK        -0.5353 
     22 CA         26.5423   -1.9958   -6.4782 C.3       4 UNK         0.0277 
     23 CB         27.7504   -2.9425   -6.5355 C.3       4 UNK        -0.1981 
     24 N          25.5489   -2.4970   -5.5263 N.am      4 UNK        -0.4209 
     25 C          24.2545   -2.1436   -5.5350 C.2       3 UNK         0.4942 
     26 O          23.7498   -1.4232   -6.3957 O.2       3 UNK        -0.5208 
     27 CA         23.3760   -2.6547   -4.3801 C.3       3 UNK         0.0250 
     28 CB         22.6910   -3.9769   -4.7603 C.3       3 UNK        -0.1990 
     29 N          24.1301   -2.8224   -3.1344 N.am      3 UNK        -0.4232 
     30 C          24.5290   -1.7970   -2.3652 C.2       2 UNK         0.4993 
     31 O          24.2434   -0.6222   -2.5973 O.2       2 UNK        -0.5286 
     32 CA         25.4317   -2.1214   -1.1588 C.3       2 UNK         0.0209 
     33 CB         24.5827   -2.3469    0.1020 C.3       2 UNK        -0.1931 
     34 N          26.3124   -3.2766   -1.3662 N.am      2 UNK        -0.4546 
     35 C          27.2288   -3.3708   -2.3395 C.2       1 UNK         0.5154 
     36 O          27.4442   -2.4733   -3.1552 O.2       1 UNK        -0.5181 
     37 C          26.4934    2.2158   -4.8152 C.2       5 UNK         0.5014 
     38 O          26.9757    3.3407   -4.9528 O.2       5 UNK        -0.5248 
     39 N          25.2316    1.9059   -5.1502 N.am      6 UNK        -0.4434 
     40 CA         24.2818    2.8240   -5.7833 C.3       6 UNK         0.0363 
     41 CB         22.8948    2.1629   -5.8207 C.3       6 UNK        -0.1936 
     42 C          24.6989    3.2807   -7.1960 C.2       6 UNK         0.5081 
     43 O          24.3166    4.3787   -7.6023 O.2       6 UNK        -0.5248 
     44 N          25.4643    2.4477   -7.9140 N.am      7 UNK        -0.4718 
     45 CA         26.0333    2.7594   -9.2268 C.3       7 UNK         0.0273 
     46 CB         25.8907    1.5338  -10.1445 C.3       7 UNK        -0.1935 
     47 C          27.5086    3.1746   -9.1103 C.2       7 UNK         0.5018 
     48 O          27.9262    4.1004   -9.8077 O.2       7 UNK        -0.5186 
     49 N          28.2576    2.4890   -8.2328 N.am      8 UNK        -0.4240 
     50 CA         29.6981    2.6136   -7.9918 C.3       8 UNK         0.0235 
     51 CB         30.0352    3.9844   -7.3616 C.3       8 UNK        -0.2000 
     52 C          30.5168    2.2612   -9.2524 C.2       8 UNK         0.4941 
     53 O          30.1425    1.3268   -9.9642 O.2       8 UNK        -0.5273 
     54 N          31.6101    3.0011   -9.4987 N.am      9 UNK        -0.4262 
     55 CA         32.5046    2.9106  -10.6618 C.3       9 UNK         0.0264 
     56 CB         31.7765    3.3886  -11.9374 C.3       9 UNK        -0.1955 
     57 C          33.1493    1.5185  -10.8234 C.2       9 UNK         0.5031 
     58 O          32.9844    0.8827  -11.8665 O.2       9 UNK        -0.5390 
     59 N          33.8788    1.0949   -9.7788 N.am      10 UNK        -0.4204 
     60 CA         34.5768   -0.1894   -9.6244 C.3       10 UNK         0.0237 
     61 CB         35.6517   -0.3930  -10.7147 C.3       10 UNK        -0.1985 
     62 C          33.5857   -1.3635   -9.5361 C.2       10 UNK         0.4970 
     63 O          33.3016   -2.0201  -10.5394 O.2       10 UNK        -0.4914 
     64 N          33.0726   -1.5873   -8.3206 N.am      11 UNK        -0.4285 
     65 CA         32.0665   -2.6111   -7.9869 C.3       11 UNK         0.1007 
     66 C          32.5211   -4.0881   -8.1802 C.2       11 UNK         0.5703 
     67 N          33.8130   -4.3810   -8.2740 N.am      11 UNK        -0.7361 
     68 O          31.6825   -4.9835   -8.2450 O.2       11 UNK        -0.4986 
     69 C69        31.5049   -2.4100   -6.5540 C.3       12 UNK        -0.0947 
     70 S70        30.8566   -0.7263   -6.2758 S.3       12 UNK        -0.2240 
     71 C71        32.0108   -0.0848   -5.0235 C.3       12 UNK         0.0194 
     72 H72        27.0746   -6.5987   -5.9224 H         1 UNK         0.0906 
     73 H73        25.6182   -7.3724   -5.2966 H         1 UNK         0.0906 
     74 H74        25.5165   -5.7794   -6.0509 H         1 UNK         0.0906 
     75 H75        28.3224   -5.5557   -4.3849 H         1 UNK         0.3140 
     76 H76        27.6560   -5.3727   -1.6652 H         1 UNK         0.1085 
     77 H77        29.9945   -5.4808   -2.7096 H         1 UNK         0.0836 
     78 H78        29.8451   -3.7920   -3.1106 H         1 UNK         0.0836 
     79 H79        32.2680   -3.8103   -1.6567 H         1 UNK         0.0731 
     80 H80        32.1030   -3.0273   -0.1055 H         1 UNK         0.0731 
     81 H81        32.3421   -2.3579   -3.5313 H         1 UNK         0.1312 
     82 H82        30.5950    1.5502   -3.3939 H         1 UNK         0.1406 
     83 H83        30.1820   -1.1077   -0.0498 H         1 UNK         0.1631 
     84 H84        30.1524    2.0695   -0.3905 H         1 UNK         0.0717 
     85 H85        28.8880    0.9004   -0.0911 H         1 UNK         0.0717 
     86 H86        27.6647    0.0673   -2.3479 H         1 UNK         0.0934 
     87 H87        26.2821    1.1153   -2.3510 H         1 UNK         0.0934 
     88 H88        28.4003    1.2855   -4.5641 H         1 UNK         0.0739 
     89 H89        27.0083   -1.0138   -4.1687 H         1 UNK         0.3093 
     90 H90        26.0886   -1.9754   -7.4718 H         1 UNK         0.0818 
     91 H91        28.2877   -2.9805   -5.5877 H         1 UNK         0.0819 
     92 H92        27.4507   -3.9567   -6.7973 H         1 UNK         0.0819 
     93 H93        28.4582   -2.6100   -7.2959 H         1 UNK         0.0819 
     94 H94        25.8999   -3.0321   -4.7444 H         1 UNK         0.3041 
     95 H95        22.5939   -1.9113   -4.2093 H         1 UNK         0.0784 
     96 H96        22.0724   -3.8512   -5.6500 H         1 UNK         0.0793 
     97 H97        23.4130   -4.7639   -4.9771 H         1 UNK         0.0793 
     98 H98        22.0396   -4.3306   -3.9610 H         1 UNK         0.0793 
     99 H99        24.4311   -3.7643   -2.9023 H         1 UNK         0.3024 
    100 H100       26.0680   -1.2505   -0.9891 H         1 UNK         0.1171 
    101 H101       23.9340   -1.4907    0.2937 H         1 UNK         0.0786 
    102 H102       25.2090   -2.4793    0.9845 H         1 UNK         0.0786 
    103 H103       23.9434   -3.2256    0.0073 H         1 UNK         0.0786 
    104 H104       26.1664   -4.0700   -0.7583 H         1 UNK         0.2977 
    105 H105       24.9129    0.9599   -4.9923 H         1 UNK         0.3127 
    106 H106       24.2190    3.7168   -5.1575 H         1 UNK         0.0770 
    107 H107       22.8974    1.2554   -6.4260 H         1 UNK         0.0814 
    108 H108       22.1526    2.8380   -6.2491 H         1 UNK         0.0814 
    109 H109       22.5522    1.8984   -4.8201 H         1 UNK         0.0814 
    110 H110       25.7794    1.5830   -7.4853 H         1 UNK         0.2983 
    111 H111       25.4901    3.5882   -9.6866 H         1 UNK         0.0947 
    112 H112       26.3035    1.7381  -11.1334 H         1 UNK         0.0806 
    113 H113       24.8442    1.2602  -10.2793 H         1 UNK         0.0806 
    114 H114       26.4157    0.6646   -9.7457 H         1 UNK         0.0806 
    115 H115       27.8202    1.6925   -7.7695 H         1 UNK         0.3000 
    116 H116       29.9369    1.8493   -7.2530 H         1 UNK         0.0850 
    117 H117       31.0632    4.0160   -6.9995 H         1 UNK         0.0810 
    118 H118       29.3940    4.1834   -6.5022 H         1 UNK         0.0810 
    119 H119       29.9011    4.8048   -8.0677 H         1 UNK         0.0810 
    120 H120       31.8275    3.7367   -8.8406 H         1 UNK         0.3040 
    121 H121       33.3239    3.6078  -10.4784 H         1 UNK         0.0766 
    122 H122       31.3797    4.3962  -11.8137 H         1 UNK         0.0812 
    123 H123       30.9458    2.7328  -12.2003 H         1 UNK         0.0812 
    124 H124       32.4560    3.4102  -12.7904 H         1 UNK         0.0812 
    125 H125       33.9220    1.7055   -8.9745 H         1 UNK         0.3205 
    126 H126       35.1049   -0.1373   -8.6707 H         1 UNK         0.0754 
    127 H127       36.2196   -1.3058  -10.5309 H         1 UNK         0.0769 
    128 H128       36.3621    0.4336  -10.7297 H         1 UNK         0.0769 
    129 H129       35.2200   -0.4805  -11.7121 H         1 UNK         0.0769 
    130 H130       33.3559   -0.9953   -7.5555 H         1 UNK         0.2981 
    131 H131       31.2388   -2.4632   -8.6834 H         1 UNK         0.0541 
    132 H132       34.5083   -3.6544   -8.2247 H         1 UNK         0.3459 
    133 H133       34.0928   -5.3406   -8.4019 H         1 UNK         0.3459 
    134 H134       30.6929   -3.1118   -6.3592 H         1 UNK         0.0612 
    135 H135       32.2755   -2.6368   -5.8170 H         1 UNK         0.0612 
    136 H136       32.1098    0.9921   -5.1681 H         1 UNK         0.0624 
    137 H137       33.0085   -0.5005   -5.1700 H         1 UNK         0.0624 
@<TRIPOS>BOND
     1    1    2 1    
     2    1   72 1    
     3    1   73 1    
     4    1   74 1    
     5    2    3 2    
     6    2    4 am   BACKBONE|DICT|INTERRES
     7    4    5 1    
     8    4   75 1    
     9    5    6 1    
    10    5   35 1    
    11    5   76 1    
    12    6    7 1    
    13    6   77 1    
    14    6   78 1    
    15    7    8 1    
    16    8    9 1    
    17    8   79 1    
    18    8   80 1    
    19    9   10 ar   
    20    9   14 ar   
    21   10   11 ar   
    22   10   81 1    
    23   11   12 ar   
    24   11   71 1    
    25   12   13 ar   
    26   12   82 1    
    27   13   14 ar   
    28   13   15 1    
    29   14   83 1    
    30   15   16 1    
    31   15   84 1    
    32   15   85 1    
    33   16   17 1    
    34   17   18 1    
    35   17   86 1    
    36   17   87 1    
    37   18   19 1    
    38   18   37 1    
    39   18   88 1    
    40   19   20 am   BACKBONE|DICT|INTERRES
    41   19   89 1    
    42   20   21 2    
    43   20   22 1    
    44   22   23 1    
    45   22   24 1    
    46   22   90 1    
    47   23   91 1    
    48   23   92 1    
    49   23   93 1    
    50   24   25 am   BACKBONE|DICT|INTERRES
    51   24   94 1    
    52   25   26 2    
    53   25   27 1    
    54   27   28 1    
    55   27   29 1    
    56   27   95 1    
    57   28   96 1    
    58   28   97 1    
    59   28   98 1    
    60   29   30 am   BACKBONE|DICT|INTERRES
    61   29   99 1    
    62   30   31 2    
    63   30   32 1    
    64   32   33 1    
    65   32   34 1    
    66   32  100 1    
    67   33  101 1    
    68   33  102 1    
    69   33  103 1    
    70   34   35 am   BACKBONE|DICT|INTERRES
    71   34  104 1    
    72   35   36 2    
    73   37   38 2    
    74   37   39 am   BACKBONE|DICT|INTERRES
    75   39   40 1    
    76   39  105 1    
    77   40   41 1    
    78   40   42 1    
    79   40  106 1    
    80   41  107 1    
    81   41  108 1    
    82   41  109 1    
    83   42   43 2    
    84   42   44 am   BACKBONE|DICT|INTERRES
    85   44   45 1    
    86   44  110 1    
    87   45   46 1    
    88   45   47 1    
    89   45  111 1    
    90   46  112 1    
    91   46  113 1    
    92   46  114 1    
    93   47   48 2    
    94   47   49 am   BACKBONE|DICT|INTERRES
    95   49   50 1    
    96   49  115 1    
    97   50   51 1    
    98   50   52 1    
    99   50  116 1    
   100   51  117 1    
   101   51  118 1    
   102   51  119 1    
   103   52   53 2    
   104   52   54 am   BACKBONE|DICT|INTERRES
   105   54   55 1    
   106   54  120 1    
   107   55   56 1    
   108   55   57 1    
   109   55  121 1    
   110   56  122 1    
   111   56  123 1    
   112   56  124 1    
   113   57   58 2    
   114   57   59 am   BACKBONE|DICT|INTERRES
   115   59   60 1    
   116   59  125 1    
   117   60   61 1    
   118   60   62 1    
   119   60  126 1    
   120   61  127 1    
   121   61  128 1    
   122   61  129 1    
   123   62   63 2    
   124   62   64 am   BACKBONE|DICT|INTERRES
   125   64   65 1    
   126   64  130 1    
   127   65   66 1    
   128   65   69 1    
   129   65  131 1    
   130   66   67 am   BACKBONE|DICT|INTERRES
   131   66   68 2    
   132   67  132 1    
   133   67  133 1    
   134   69   70 1    
   135   69  134 1    
   136   69  135 1    
   137   70   71 1    
   138   71  136 1    
   139   71  137 1    
@<TRIPOS>SUBSTRUCTURE
     1 UNK         1 GROUP             0       ****    0 ROOT    
