@<TRIPOS>MOLECULE
3R137
137   139    1
SMALL
USER_CHARGES


@<TRIPOS>ATOM
      1 CA         27.1218   -2.2882    3.3383 C.3       0 UNK        -0.2020 
      2 C          27.7610   -1.3556    2.3207 C.2       0 UNK         0.4855 
      3 O          28.1855   -0.2567    2.6780 O.2       0 UNK        -0.5197 
      4 N          27.8288   -1.7818    1.0527 N.am      1 UNK        -0.4892 
      5 CA         28.4400   -1.0290   -0.0546 C.3       1 UNK         0.0835 
      6 C6         28.8293   -1.9454   -1.2442 C.3       12 UNK        -0.0855 
      7 S7         29.7617   -3.4393   -0.7721 S.3       12 UNK        -0.2931 
      8 C8         29.2158   -4.6140   -2.0658 C.3       12 UNK         0.0378 
      9 C9         29.8164   -4.4151   -3.4630 C.ar      12 UNK        -0.0802 
     10 C10        30.9036   -3.5661   -3.7129 C.ar      12 UNK        -0.0944 
     11 C11        31.4674   -3.4717   -4.9892 C.ar      12 UNK        -0.0787 
     12 C12        30.9407   -4.2488   -6.0279 C.ar      12 UNK        -0.0862 
     13 C13        29.8537   -5.0990   -5.8015 C.ar      12 UNK        -0.0733 
     14 C14        29.2937   -5.1672   -4.5212 C.ar      12 UNK        -0.0832 
     15 C15        29.3384   -6.0092   -6.9133 C.3       12 UNK         0.0240 
     16 S16        28.6461   -5.1097   -8.3396 S.3       12 UNK        -0.2522 
     17 C17        27.1138   -4.4025   -7.6415 C.3       12 UNK        -0.0967 
     18 CA         26.7707   -2.9990   -8.2065 C.3       5 UNK         0.0660 
     19 N          25.4593   -2.5417   -7.7335 N.am      5 UNK        -0.4015 
     20 C          24.8459   -1.4120   -8.1187 C.2       4 UNK         0.4946 
     21 O          25.2812   -0.6493   -8.9789 O.2       4 UNK        -0.5353 
     22 CA         23.5496   -1.0374   -7.3819 C.3       4 UNK         0.0277 
     23 CB         22.3366   -1.7067   -8.0474 C.3       4 UNK        -0.1981 
     24 N          23.5726   -1.3608   -5.9512 N.am      4 UNK        -0.4209 
     25 C          24.4477   -0.8614   -5.0674 C.2       3 UNK         0.4942 
     26 O          25.3655   -0.0908   -5.3606 O.2       3 UNK        -0.5208 
     27 CA         24.3049   -1.3546   -3.6261 C.3       3 UNK         0.0250 
     28 CB         25.0420   -2.6940   -3.4416 C.3       3 UNK        -0.1990 
     29 N          24.8833   -0.3689   -2.7174 N.am      3 UNK        -0.4232 
     30 C          24.3390    0.0333   -1.5641 C.2       2 UNK         0.4993 
     31 O          23.2534   -0.3659   -1.1379 O.2       2 UNK        -0.5286 
     32 CA         25.2055    0.9660   -0.7062 C.3       2 UNK         0.0209 
     33 CB         24.4190    1.6262    0.4424 C.3       2 UNK        -0.1931 
     34 N          26.2755    0.1471   -0.1427 N.am      2 UNK        -0.4546 
     35 C          27.5425    0.1184   -0.5737 C.2       1 UNK         0.5154 
     36 O          27.9945    0.9152   -1.3967 O.2       1 UNK        -0.5181 
     37 C          27.8700   -1.9643   -7.8926 C.2       5 UNK         0.5014 
     38 O          28.5941   -1.5463   -8.7972 O.2       5 UNK        -0.5248 
     39 N          27.9344   -1.5462   -6.6215 N.am      6 UNK        -0.4434 
     40 CA         28.9020   -0.5785   -6.1105 C.3       6 UNK         0.0363 
     41 CB         28.7948   -0.5215   -4.5826 C.3       6 UNK        -0.1936 
     42 C          28.7440    0.8155   -6.7327 C.2       6 UNK         0.5081 
     43 O          29.7499    1.4800   -6.9837 O.2       6 UNK        -0.5248 
     44 N          27.4931    1.2167   -6.9946 N.am      7 UNK        -0.4718 
     45 CA         27.1493    2.4421   -7.7120 C.3       7 UNK         0.0273 
     46 CB         25.6485    2.7314   -7.5486 C.3       7 UNK        -0.1935 
     47 C          27.5435    2.3801   -9.1974 C.2       7 UNK         0.5018 
     48 O          28.1856    3.3107   -9.6841 O.2       7 UNK        -0.5186 
     49 N          27.1684    1.2913   -9.8864 N.am      8 UNK        -0.4240 
     50 CA         27.4236    1.0791  -11.3151 C.3       8 UNK         0.0235 
     51 CB         26.6343   -0.1421  -11.8139 C.3       8 UNK        -0.2000 
     52 C          28.9138    0.9297  -11.6542 C.2       8 UNK         0.4941 
     53 O          29.3741    1.5350  -12.6231 O.2       8 UNK        -0.5273 
     54 N          29.6439    0.1440  -10.8508 N.am      9 UNK        -0.4262 
     55 CA         31.0896   -0.0535  -10.9924 C.3       9 UNK         0.0264 
     56 CB         31.4831   -1.3750  -10.3140 C.3       9 UNK        -0.1955 
     57 C          31.9213    1.1155  -10.4322 C.2       9 UNK         0.5031 
     58 O          33.1202    1.1760  -10.7074 O.2       9 UNK        -0.5390 
     59 N          31.2860    2.0009   -9.6482 N.am      10 UNK        -0.4204 
     60 CA         31.8515    3.1615   -8.9470 C.3       10 UNK         0.0237 
     61 CB         32.4078    4.1994   -9.9450 C.3       10 UNK        -0.1985 
     62 C          32.8634    2.7968   -7.8403 C.2       10 UNK         0.4970 
     63 O          33.6197    3.6652   -7.4013 O.2       10 UNK        -0.4914 
     64 N          32.8495    1.5352   -7.3945 N.am      11 UNK        -0.4285 
     65 CA         33.6504    1.0163   -6.2789 C.3       11 UNK         0.1007 
     66 C          33.0238    1.2746   -4.8782 C.2       11 UNK         0.5703 
     67 N          31.7775    1.7234   -4.7785 N.am      11 UNK        -0.7361 
     68 O          33.6911    1.0837   -3.8644 O.2       11 UNK        -0.4986 
     69 C69        34.0338   -0.4713   -6.5006 C.3       12 UNK        -0.0947 
     70 S70        32.5995   -1.5789   -6.7202 S.3       12 UNK        -0.2240 
     71 C71        32.6875   -2.5789   -5.2022 C.3       12 UNK         0.0194 
     72 H72        26.2578   -1.8081    3.7971 H         1 UNK         0.0906 
     73 H73        26.7901   -3.2221    2.8849 H         1 UNK         0.0906 
     74 H74        27.8355   -2.5291    4.1256 H         1 UNK         0.0906 
     75 H75        27.4960   -2.7066    0.8170 H         1 UNK         0.3140 
     76 H76        29.3548   -0.5647    0.3210 H         1 UNK         0.1085 
     77 H77        27.9389   -2.2482   -1.7992 H         1 UNK         0.0836 
     78 H78        29.4537   -1.3868   -1.9423 H         1 UNK         0.0836 
     79 H79        28.1266   -4.5923   -2.1282 H         1 UNK         0.0731 
     80 H80        29.4788   -5.6181   -1.7305 H         1 UNK         0.0731 
     81 H81        31.3398   -2.9894   -2.9105 H         1 UNK         0.1312 
     82 H82        31.3873   -4.2069   -7.0120 H         1 UNK         0.1406 
     83 H83        28.4690   -5.8424   -4.3355 H         1 UNK         0.1631 
     84 H84        28.5850   -6.7018   -6.5348 H         1 UNK         0.0717 
     85 H85        30.1653   -6.6275   -7.2653 H         1 UNK         0.0717 
     86 H86        26.3042   -5.0990   -7.8655 H         1 UNK         0.0934 
     87 H87        27.1875   -4.3702   -6.5532 H         1 UNK         0.0934 
     88 H88        26.7041   -3.0791   -9.2938 H         1 UNK         0.0739 
     89 H89        25.0100   -3.1059   -7.0283 H         1 UNK         0.3093 
     90 H90        23.4295    0.0446   -7.4684 H         1 UNK         0.0818 
     91 H91        21.4014   -1.3675   -7.6013 H         1 UNK         0.0819 
     92 H92        22.2920   -1.4629   -9.1100 H         1 UNK         0.0819 
     93 H93        22.3746   -2.7936   -7.9641 H         1 UNK         0.0819 
     94 H94        22.8567   -1.9924   -5.6204 H         1 UNK         0.3041 
     95 H95        23.2421   -1.4904   -3.4137 H         1 UNK         0.0784 
     96 H96        24.6296   -3.4662   -4.0921 H         1 UNK         0.0793 
     97 H97        26.1054   -2.6063   -3.6684 H         1 UNK         0.0793 
     98 H98        24.9505   -3.0554   -2.4170 H         1 UNK         0.0793 
     99 H99        25.7442    0.0548   -3.0382 H         1 UNK         0.3024 
    100 H100       25.6042    1.7549   -1.3487 H         1 UNK         0.1171 
    101 H101       25.0562    2.2947    1.0215 H         1 UNK         0.0786 
    102 H102       23.5908    2.2212    0.0554 H         1 UNK         0.0786 
    103 H103       24.0004    0.8887    1.1286 H         1 UNK         0.0786 
    104 H104       25.9924   -0.5687    0.5116 H         1 UNK         0.2977 
    105 H105       27.2571   -1.8944   -5.9614 H         1 UNK         0.3127 
    106 H106       29.8934   -0.9464   -6.3702 H         1 UNK         0.0770 
    107 H107       27.8417   -0.1074   -4.2534 H         1 UNK         0.0814 
    108 H108       29.5837    0.0974   -4.1560 H         1 UNK         0.0814 
    109 H109       28.8957   -1.5182   -4.1568 H         1 UNK         0.0814 
    110 H110       26.7247    0.6283   -6.6869 H         1 UNK         0.2983 
    111 H111       27.7047    3.2645   -7.2555 H         1 UNK         0.0947 
    112 H112       25.3748    3.6634   -8.0447 H         1 UNK         0.0806 
    113 H113       25.3770    2.8302   -6.4973 H         1 UNK         0.0806 
    114 H114       25.0334    1.9401   -7.9776 H         1 UNK         0.0806 
    115 H115       26.6166    0.5751   -9.4168 H         1 UNK         0.3000 
    116 H116       27.0541    1.9582  -11.8475 H         1 UNK         0.0850 
    117 H117       26.8093   -0.3159  -12.8765 H         1 UNK         0.0810 
    118 H118       25.5616   -0.0003  -11.6814 H         1 UNK         0.0810 
    119 H119       26.9189   -1.0504  -11.2809 H         1 UNK         0.0810 
    120 H120       29.1850   -0.3612  -10.0923 H         1 UNK         0.3040 
    121 H121       31.3290   -0.1382  -12.0546 H         1 UNK         0.0766 
    122 H122       31.2250   -1.3714   -9.2558 H         1 UNK         0.0812 
    123 H123       32.5561   -1.5565  -10.3895 H         1 UNK         0.0812 
    124 H124       30.9759   -2.2230  -10.7743 H         1 UNK         0.0812 
    125 H125       30.3024    1.8413   -9.4726 H         1 UNK         0.3205 
    126 H126       31.0095    3.6257   -8.4312 H         1 UNK         0.0754 
    127 H127       32.6745    5.1274   -9.4378 H         1 UNK         0.0769 
    128 H128       31.6695    4.4499  -10.7069 H         1 UNK         0.0769 
    129 H129       33.3036    3.8375  -10.4503 H         1 UNK         0.0769 
    130 H130       32.1583    0.9019   -7.7685 H         1 UNK         0.2981 
    131 H131       34.5910    1.5701   -6.2697 H         1 UNK         0.0541 
    132 H132       31.2025    1.8343   -5.6058 H         1 UNK         0.3459 
    133 H133       31.3930    1.9062   -3.8663 H         1 UNK         0.3459 
    134 H134       34.6649   -0.8330   -5.6869 H         1 UNK         0.0612 
    135 H135       34.6461   -0.5530   -7.3998 H         1 UNK         0.0612 
    136 H136       33.5807   -3.2036   -5.2390 H         1 UNK         0.0624 
    137 H137       32.8114   -1.9026   -4.3548 H         1 UNK         0.0624 
@<TRIPOS>BOND
     1    1    2 1    
     2    1   72 1    
     3    1   73 1    
     4    1   74 1    
     5    2    3 2    
     6    2    4 am   BACKBONE|DICT|INTERRES
     7    4    5 1    
     8    4   75 1    
     9    5    6 1    
    10    5   35 1    
    11    5   76 1    
    12    6    7 1    
    13    6   77 1    
    14    6   78 1    
    15    7    8 1    
    16    8    9 1    
    17    8   79 1    
    18    8   80 1    
    19    9   10 ar   
    20    9   14 ar   
    21   10   11 ar   
    22   10   81 1    
    23   11   12 ar   
    24   11   71 1    
    25   12   13 ar   
    26   12   82 1    
    27   13   14 ar   
    28   13   15 1    
    29   14   83 1    
    30   15   16 1    
    31   15   84 1    
    32   15   85 1    
    33   16   17 1    
    34   17   18 1    
    35   17   86 1    
    36   17   87 1    
    37   18   19 1    
    38   18   37 1    
    39   18   88 1    
    40   19   20 am   BACKBONE|DICT|INTERRES
    41   19   89 1    
    42   20   21 2    
    43   20   22 1    
    44   22   23 1    
    45   22   24 1    
    46   22   90 1    
    47   23   91 1    
    48   23   92 1    
    49   23   93 1    
    50   24   25 am   BACKBONE|DICT|INTERRES
    51   24   94 1    
    52   25   26 2    
    53   25   27 1    
    54   27   28 1    
    55   27   29 1    
    56   27   95 1    
    57   28   96 1    
    58   28   97 1    
    59   28   98 1    
    60   29   30 am   BACKBONE|DICT|INTERRES
    61   29   99 1    
    62   30   31 2    
    63   30   32 1    
    64   32   33 1    
    65   32   34 1    
    66   32  100 1    
    67   33  101 1    
    68   33  102 1    
    69   33  103 1    
    70   34   35 am   BACKBONE|DICT|INTERRES
    71   34  104 1    
    72   35   36 2    
    73   37   38 2    
    74   37   39 am   BACKBONE|DICT|INTERRES
    75   39   40 1    
    76   39  105 1    
    77   40   41 1    
    78   40   42 1    
    79   40  106 1    
    80   41  107 1    
    81   41  108 1    
    82   41  109 1    
    83   42   43 2    
    84   42   44 am   BACKBONE|DICT|INTERRES
    85   44   45 1    
    86   44  110 1    
    87   45   46 1    
    88   45   47 1    
    89   45  111 1    
    90   46  112 1    
    91   46  113 1    
    92   46  114 1    
    93   47   48 2    
    94   47   49 am   BACKBONE|DICT|INTERRES
    95   49   50 1    
    96   49  115 1    
    97   50   51 1    
    98   50   52 1    
    99   50  116 1    
   100   51  117 1    
   101   51  118 1    
   102   51  119 1    
   103   52   53 2    
   104   52   54 am   BACKBONE|DICT|INTERRES
   105   54   55 1    
   106   54  120 1    
   107   55   56 1    
   108   55   57 1    
   109   55  121 1    
   110   56  122 1    
   111   56  123 1    
   112   56  124 1    
   113   57   58 2    
   114   57   59 am   BACKBONE|DICT|INTERRES
   115   59   60 1    
   116   59  125 1    
   117   60   61 1    
   118   60   62 1    
   119   60  126 1    
   120   61  127 1    
   121   61  128 1    
   122   61  129 1    
   123   62   63 2    
   124   62   64 am   BACKBONE|DICT|INTERRES
   125   64   65 1    
   126   64  130 1    
   127   65   66 1    
   128   65   69 1    
   129   65  131 1    
   130   66   67 am   BACKBONE|DICT|INTERRES
   131   66   68 2    
   132   67  132 1    
   133   67  133 1    
   134   69   70 1    
   135   69  134 1    
   136   69  135 1    
   137   70   71 1    
   138   71  136 1    
   139   71  137 1    
@<TRIPOS>SUBSTRUCTURE
     1 UNK         1 GROUP             0       ****    0 ROOT    
