@<TRIPOS>MOLECULE
3R137
137   139    1
SMALL
USER_CHARGES


@<TRIPOS>ATOM
      1 CA         23.8589   -5.3461   -1.7107 C.3       0 UNK        -0.2020 
      2 C          24.8862   -4.6665   -0.8175 C.2       0 UNK         0.4855 
      3 O          24.5768   -4.3284    0.3249 O.2       0 UNK        -0.5197 
      4 N          26.1064   -4.4611   -1.3318 N.am      1 UNK        -0.4892 
      5 CA         27.2117   -3.7856   -0.6344 C.3       1 UNK         0.0835 
      6 C6         28.5596   -4.0875   -1.3332 C.3       12 UNK        -0.0855 
      7 S7         30.0110   -3.9854   -0.2281 S.3       12 UNK        -0.2931 
      8 C8         31.2296   -5.0127   -1.1200 C.3       12 UNK         0.0378 
      9 C9         31.5732   -4.4168   -2.4780 C.ar      12 UNK        -0.0802 
     10 C10        32.6421   -3.5266   -2.6193 C.ar      12 UNK        -0.0944 
     11 C11        32.9092   -2.9308   -3.8570 C.ar      12 UNK        -0.0787 
     12 C12        32.0779   -3.2111   -4.9494 C.ar      12 UNK        -0.0862 
     13 C13        31.0127   -4.1072   -4.8196 C.ar      12 UNK        -0.0733 
     14 C14        30.7928   -4.7333   -3.5920 C.ar      12 UNK        -0.0832 
     15 C15        30.0794   -4.3972   -5.9873 C.3       12 UNK         0.0240 
     16 S16        28.3575   -3.9291   -5.5991 S.3       12 UNK        -0.2522 
     17 C17        28.4366   -2.1095   -5.6850 C.3       12 UNK        -0.0967 
     18 CA         27.4041   -1.5600   -6.6985 C.3       5 UNK         0.0660 
     19 N          26.0317   -1.7030   -6.2143 N.am      5 UNK        -0.4015 
     20 C          24.9878   -2.0679   -6.9692 C.2       4 UNK         0.4946 
     21 O          25.0741   -2.4048   -8.1509 O.2       4 UNK        -0.5353 
     22 CA         23.6000   -2.0453   -6.2996 C.3       4 UNK         0.0277 
     23 CB         23.2654   -3.4294   -5.7188 C.3       4 UNK        -0.1981 
     24 N          23.4564   -1.0338   -5.2469 N.am      4 UNK        -0.4209 
     25 C          23.5975    0.2880   -5.4225 C.2       3 UNK         0.4942 
     26 O          23.8606    0.8154   -6.5022 O.2       3 UNK        -0.5208 
     27 CA         23.4771    1.1714   -4.1702 C.3       3 UNK         0.0250 
     28 CB         22.0021    1.5073   -3.8977 C.3       3 UNK        -0.1990 
     29 N          24.0851    0.6263   -2.9482 N.am      3 UNK        -0.4232 
     30 C          25.3082    0.0905   -2.8086 C.2       2 UNK         0.4993 
     31 O          26.0773   -0.1268   -3.7489 O.2       2 UNK        -0.5286 
     32 CA         25.7489   -0.2880   -1.3864 C.3       2 UNK         0.0209 
     33 CB         24.6769   -0.0483   -0.2965 C.3       2 UNK        -0.1931 
     34 N          26.1672   -1.6870   -1.3869 N.am      2 UNK        -0.4546 
     35 C          26.9685   -2.2650   -0.4819 C.2       1 UNK         0.5154 
     36 O          27.4813   -1.6550    0.4581 O.2       1 UNK        -0.5181 
     37 C          27.6819   -0.0868   -7.0354 C.2       5 UNK         0.5014 
     38 O          28.2461    0.1887   -8.0958 O.2       5 UNK        -0.5248 
     39 N          27.2821    0.8400   -6.1499 N.am      6 UNK        -0.4434 
     40 CA         27.5358    2.2805   -6.2763 C.3       6 UNK         0.0363 
     41 CB         27.0535    3.0096   -5.0149 C.3       6 UNK        -0.1936 
     42 C          26.9418    2.9233   -7.5422 C.2       6 UNK         0.5081 
     43 O          27.5516    3.8464   -8.0814 O.2       6 UNK        -0.5248 
     44 N          25.8170    2.3922   -8.0446 N.am      7 UNK        -0.4718 
     45 CA         25.2169    2.7724   -9.3306 C.3       7 UNK         0.0273 
     46 CB         23.8651    2.0593   -9.4915 C.3       7 UNK        -0.1935 
     47 C          26.1155    2.4943  -10.5535 C.2       7 UNK         0.5018 
     48 O          25.9479    3.1528  -11.5804 O.2       7 UNK        -0.5186 
     49 N          27.0583    1.5518  -10.4184 N.am      8 UNK        -0.4240 
     50 CA         28.0858    1.2230  -11.4081 C.3       8 UNK         0.0235 
     51 CB         28.1159   -0.3062  -11.5887 C.3       8 UNK        -0.2000 
     52 C          29.4689    1.7683  -10.9957 C.2       8 UNK         0.4941 
     53 O          30.4741    1.3227  -11.5496 O.2       8 UNK        -0.5273 
     54 N          29.5060    2.6968  -10.0243 N.am      9 UNK        -0.4262 
     55 CA         30.6880    3.3076   -9.3978 C.3       9 UNK         0.0264 
     56 CB         31.5568    4.0575  -10.4304 C.3       9 UNK        -0.1955 
     57 C          31.5137    2.3434   -8.5209 C.2       9 UNK         0.5031 
     58 O          32.6333    2.6914   -8.1378 O.2       9 UNK        -0.5390 
     59 N          30.9435    1.1765   -8.1830 N.am      10 UNK        -0.4204 
     60 CA         31.4905    0.1244   -7.3245 C.3       10 UNK         0.0237 
     61 CB         31.3611    0.5434   -5.8417 C.3       10 UNK        -0.1985 
     62 C          32.9051   -0.3133   -7.7522 C.2       10 UNK         0.4970 
     63 O          33.0611   -0.8409   -8.8543 O.2       10 UNK        -0.4914 
     64 N          33.8918   -0.0947   -6.8783 N.am      11 UNK        -0.4285 
     65 CA         35.3139   -0.3911   -7.1022 C.3       11 UNK         0.1007 
     66 C          36.1036    0.7985   -7.7251 C.2       11 UNK         0.5703 
     67 N          35.4812    1.9235   -8.0611 N.am      11 UNK        -0.7361 
     68 O          37.3118    0.6952   -7.9245 O.2       11 UNK        -0.4986 
     69 C69        35.9845   -0.9235   -5.8049 C.3       12 UNK        -0.0947 
     70 S70        35.2644   -2.5104   -5.2615 S.3       12 UNK        -0.2240 
     71 C71        34.0690   -1.9545   -4.0048 C.3       12 UNK         0.0194 
     72 H72        23.0011   -4.6911   -1.8614 H         1 UNK         0.0906 
     73 H73        23.5068   -6.2658   -1.2442 H         1 UNK         0.0906 
     74 H74        24.2687   -5.5981   -2.6886 H         1 UNK         0.0906 
     75 H75        26.3052   -4.7760   -2.2713 H         1 UNK         0.3140 
     76 H76        27.2504   -4.2008    0.3756 H         1 UNK         0.1085 
     77 H77        28.5355   -5.1068   -1.7210 H         1 UNK         0.0836 
     78 H78        28.7112   -3.4373   -2.1978 H         1 UNK         0.0836 
     79 H79        30.8412   -6.0259   -1.2357 H         1 UNK         0.0731 
     80 H80        32.1315   -5.1005   -0.5121 H         1 UNK         0.0731 
     81 H81        33.2545   -3.2864   -1.7607 H         1 UNK         0.1312 
     82 H82        32.2673   -2.7337   -5.9005 H         1 UNK         0.1406 
     83 H83        29.9728   -5.4311   -3.4963 H         1 UNK         0.1631 
     84 H84        30.1125   -5.4647   -6.2092 H         1 UNK         0.0717 
     85 H85        30.4040   -3.8838   -6.8939 H         1 UNK         0.0717 
     86 H86        28.2674   -1.7011   -4.6866 H         1 UNK         0.0934 
     87 H87        29.4493   -1.8150   -5.9605 H         1 UNK         0.0934 
     88 H88        27.5252   -2.1171   -7.6305 H         1 UNK         0.0739 
     89 H89        25.8619   -1.3935   -5.2636 H         1 UNK         0.3093 
     90 H90        22.8696   -1.8123   -7.0774 H         1 UNK         0.0818 
     91 H91        23.3367   -4.2015   -6.4864 H         1 UNK         0.0819 
     92 H92        23.9482   -3.7070   -4.9147 H         1 UNK         0.0819 
     93 H93        22.2494   -3.4614   -5.3249 H         1 UNK         0.0819 
     94 H94        23.2400   -1.3678   -4.3193 H         1 UNK         0.3041 
     95 H95        23.9889    2.1079   -4.3887 H         1 UNK         0.0784 
     96 H96        21.5267    1.9298   -4.7844 H         1 UNK         0.0793 
     97 H97        21.4311    0.6230   -3.6119 H         1 UNK         0.0793 
     98 H98        21.9024    2.2439   -3.1001 H         1 UNK         0.0793 
     99 H99        23.5379    0.7353   -2.1064 H         1 UNK         0.3024 
    100 H100       26.6179    0.3346   -1.1617 H         1 UNK         0.1171 
    101 H101       24.3647    0.9965   -0.2633 H         1 UNK         0.0786 
    102 H102       23.7907   -0.6650   -0.4529 H         1 UNK         0.0786 
    103 H103       25.0640   -0.2847    0.6948 H         1 UNK         0.0786 
    104 H104       25.8230   -2.2494   -2.1519 H         1 UNK         0.2977 
    105 H105       26.8274    0.5339   -5.2918 H         1 UNK         0.3127 
    106 H106       28.6187    2.4061   -6.3379 H         1 UNK         0.0770 
    107 H107       25.9708    2.9676   -4.9174 H         1 UNK         0.0814 
    108 H108       27.3344    4.0632   -5.0450 H         1 UNK         0.0814 
    109 H109       27.4920    2.5823   -4.1129 H         1 UNK         0.0814 
    110 H110       25.3346    1.6700   -7.5155 H         1 UNK         0.2983 
    111 H111       25.0355    3.8491   -9.3051 H         1 UNK         0.0947 
    112 H112       23.9768    0.9744   -9.4635 H         1 UNK         0.0806 
    113 H113       23.3941    2.3168  -10.4413 H         1 UNK         0.0806 
    114 H114       23.1712    2.3443   -8.7006 H         1 UNK         0.0806 
    115 H115       27.1504    1.0792   -9.5240 H         1 UNK         0.3000 
    116 H116       27.8416    1.6740  -12.3720 H         1 UNK         0.0850 
    117 H117       28.8185   -0.5975  -12.3706 H         1 UNK         0.0810 
    118 H118       27.1373   -0.6902  -11.8771 H         1 UNK         0.0810 
    119 H119       28.4180   -0.8144  -10.6720 H         1 UNK         0.0810 
    120 H120       28.6236    2.9976   -9.6223 H         1 UNK         0.3040 
    121 H121       30.2935    4.0555   -8.7085 H         1 UNK         0.0766 
    122 H122       32.0704    3.3719  -11.1047 H         1 UNK         0.0812 
    123 H123       32.3236    4.6541   -9.9348 H         1 UNK         0.0812 
    124 H124       30.9580    4.7395  -11.0338 H         1 UNK         0.0812 
    125 H125       30.0112    0.9833   -8.5363 H         1 UNK         0.3205 
    126 H126       30.8564   -0.7482   -7.4809 H         1 UNK         0.0754 
    127 H127       31.6611   -0.2615   -5.1720 H         1 UNK         0.0769 
    128 H128       30.3272    0.7804   -5.5927 H         1 UNK         0.0769 
    129 H129       31.9592    1.4247   -5.6067 H         1 UNK         0.0769 
    130 H130       33.6744    0.3968   -6.0252 H         1 UNK         0.2981 
    131 H131       35.3853   -1.1880   -7.8448 H         1 UNK         0.0541 
    132 H132       36.0179    2.6734   -8.4661 H         1 UNK         0.3459 
    133 H133       34.4772    2.0328   -7.9513 H         1 UNK         0.3459 
    134 H134       35.9206   -0.1888   -5.0003 H         1 UNK         0.0612 
    135 H135       37.0488   -1.1015   -5.9683 H         1 UNK         0.0612 
    136 H136       33.6724   -0.9752   -4.2665 H         1 UNK         0.0624 
    137 H137       34.5966   -1.8257   -3.0586 H         1 UNK         0.0624 
@<TRIPOS>BOND
     1    1    2 1    
     2    1   72 1    
     3    1   73 1    
     4    1   74 1    
     5    2    3 2    
     6    2    4 am   BACKBONE|DICT|INTERRES
     7    4    5 1    
     8    4   75 1    
     9    5    6 1    
    10    5   35 1    
    11    5   76 1    
    12    6    7 1    
    13    6   77 1    
    14    6   78 1    
    15    7    8 1    
    16    8    9 1    
    17    8   79 1    
    18    8   80 1    
    19    9   10 ar   
    20    9   14 ar   
    21   10   11 ar   
    22   10   81 1    
    23   11   12 ar   
    24   11   71 1    
    25   12   13 ar   
    26   12   82 1    
    27   13   14 ar   
    28   13   15 1    
    29   14   83 1    
    30   15   16 1    
    31   15   84 1    
    32   15   85 1    
    33   16   17 1    
    34   17   18 1    
    35   17   86 1    
    36   17   87 1    
    37   18   19 1    
    38   18   37 1    
    39   18   88 1    
    40   19   20 am   BACKBONE|DICT|INTERRES
    41   19   89 1    
    42   20   21 2    
    43   20   22 1    
    44   22   23 1    
    45   22   24 1    
    46   22   90 1    
    47   23   91 1    
    48   23   92 1    
    49   23   93 1    
    50   24   25 am   BACKBONE|DICT|INTERRES
    51   24   94 1    
    52   25   26 2    
    53   25   27 1    
    54   27   28 1    
    55   27   29 1    
    56   27   95 1    
    57   28   96 1    
    58   28   97 1    
    59   28   98 1    
    60   29   30 am   BACKBONE|DICT|INTERRES
    61   29   99 1    
    62   30   31 2    
    63   30   32 1    
    64   32   33 1    
    65   32   34 1    
    66   32  100 1    
    67   33  101 1    
    68   33  102 1    
    69   33  103 1    
    70   34   35 am   BACKBONE|DICT|INTERRES
    71   34  104 1    
    72   35   36 2    
    73   37   38 2    
    74   37   39 am   BACKBONE|DICT|INTERRES
    75   39   40 1    
    76   39  105 1    
    77   40   41 1    
    78   40   42 1    
    79   40  106 1    
    80   41  107 1    
    81   41  108 1    
    82   41  109 1    
    83   42   43 2    
    84   42   44 am   BACKBONE|DICT|INTERRES
    85   44   45 1    
    86   44  110 1    
    87   45   46 1    
    88   45   47 1    
    89   45  111 1    
    90   46  112 1    
    91   46  113 1    
    92   46  114 1    
    93   47   48 2    
    94   47   49 am   BACKBONE|DICT|INTERRES
    95   49   50 1    
    96   49  115 1    
    97   50   51 1    
    98   50   52 1    
    99   50  116 1    
   100   51  117 1    
   101   51  118 1    
   102   51  119 1    
   103   52   53 2    
   104   52   54 am   BACKBONE|DICT|INTERRES
   105   54   55 1    
   106   54  120 1    
   107   55   56 1    
   108   55   57 1    
   109   55  121 1    
   110   56  122 1    
   111   56  123 1    
   112   56  124 1    
   113   57   58 2    
   114   57   59 am   BACKBONE|DICT|INTERRES
   115   59   60 1    
   116   59  125 1    
   117   60   61 1    
   118   60   62 1    
   119   60  126 1    
   120   61  127 1    
   121   61  128 1    
   122   61  129 1    
   123   62   63 2    
   124   62   64 am   BACKBONE|DICT|INTERRES
   125   64   65 1    
   126   64  130 1    
   127   65   66 1    
   128   65   69 1    
   129   65  131 1    
   130   66   67 am   BACKBONE|DICT|INTERRES
   131   66   68 2    
   132   67  132 1    
   133   67  133 1    
   134   69   70 1    
   135   69  134 1    
   136   69  135 1    
   137   70   71 1    
   138   71  136 1    
   139   71  137 1    
@<TRIPOS>SUBSTRUCTURE
     1 UNK         1 GROUP             0       ****    0 ROOT    
