@<TRIPOS>MOLECULE
3R137
137   139    1
SMALL
USER_CHARGES


@<TRIPOS>ATOM
      1 CA         27.9879   -6.2950   -0.5951 C.3       0 UNK        -0.2020 
      2 C          27.2505   -5.0850   -0.0416 C.2       0 UNK         0.4855 
      3 O          26.5108   -5.2110    0.9343 O.2       0 UNK        -0.5197 
      4 N          27.4422   -3.9130   -0.6616 N.am      1 UNK        -0.4892 
      5 CA         26.8264   -2.6391   -0.2571 C.3       1 UNK         0.0835 
      6 C6         27.6191   -1.4148   -0.7831 C.3       12 UNK        -0.0855 
      7 S7         29.3146   -1.3684   -0.1085 S.3       12 UNK        -0.2931 
      8 C8         30.1267   -0.1664   -1.2206 C.3       12 UNK         0.0378 
      9 C9         30.6097   -0.7090   -2.5703 C.ar      12 UNK        -0.0802 
     10 C10        31.4395    0.1061   -3.3486 C.ar      12 UNK        -0.0944 
     11 C11        31.9525   -0.3483   -4.5669 C.ar      12 UNK        -0.0787 
     12 C12        31.6120   -1.6233   -5.0245 C.ar      12 UNK        -0.0862 
     13 C13        30.7821   -2.4505   -4.2661 C.ar      12 UNK        -0.0733 
     14 C14        30.2857   -1.9888   -3.0437 C.ar      12 UNK        -0.0832 
     15 C15        30.4679   -3.8635   -4.7405 C.3       12 UNK         0.0240 
     16 S16        29.4948   -3.8963   -6.2787 S.3       12 UNK        -0.2522 
     17 C17        27.9291   -3.1231   -5.7638 C.3       12 UNK        -0.0967 
     18 CA         27.4466   -2.0357   -6.7578 C.3       5 UNK         0.0660 
     19 N          25.9910   -1.8753   -6.6714 N.am      5 UNK        -0.4015 
     20 C          25.2407   -1.1507   -7.5110 C.2       4 UNK         0.4946 
     21 O          25.6896   -0.5213   -8.4666 O.2       4 UNK        -0.5353 
     22 CA         23.7353   -1.0870   -7.2120 C.3       4 UNK         0.0277 
     23 CB         23.0155   -2.3079   -7.8060 C.3       4 UNK        -0.1981 
     24 N          23.4071   -0.9717   -5.7878 N.am      4 UNK        -0.4209 
     25 C          23.8198   -0.0090   -4.9539 C.2       3 UNK         0.4942 
     26 O          24.6447    0.8512   -5.2593 O.2       3 UNK        -0.5208 
     27 CA         23.2158    0.0009   -3.5392 C.3       3 UNK         0.0250 
     28 CB         21.7204    0.3723   -3.5755 C.3       3 UNK        -0.1990 
     29 N          23.4443   -1.2246   -2.7621 N.am      3 UNK        -0.4232 
     30 C          23.0405   -2.4798   -3.0026 C.2       2 UNK         0.4993 
     31 O          22.3753   -2.8060   -3.9881 O.2       2 UNK        -0.5286 
     32 CA         23.4619   -3.5513   -1.9734 C.3       2 UNK         0.0209 
     33 CB         23.2334   -4.9847   -2.4907 C.3       2 UNK        -0.1931 
     34 N          24.8584   -3.4316   -1.5335 N.am      2 UNK        -0.4546 
     35 C          25.3369   -2.5392   -0.6537 C.2       1 UNK         0.5154 
     36 O          24.6452   -1.6413   -0.1715 O.2       1 UNK        -0.5181 
     37 C          28.1977   -0.6960   -6.5756 C.2       5 UNK         0.5014 
     38 O          29.1532   -0.4162   -7.3065 O.2       5 UNK        -0.5248 
     39 N          27.7140    0.1210   -5.6285 N.am      6 UNK        -0.4434 
     40 CA         28.2245    1.4591   -5.3413 C.3       6 UNK         0.0363 
     41 CB         27.7884    1.8785   -3.9292 C.3       6 UNK        -0.1936 
     42 C          27.7536    2.4866   -6.3815 C.2       6 UNK         0.5081 
     43 O          28.5429    3.3443   -6.7728 O.2       6 UNK        -0.5248 
     44 N          26.4938    2.3738   -6.8290 N.am      7 UNK        -0.4718 
     45 CA         25.8896    3.2262   -7.8586 C.3       7 UNK         0.0273 
     46 CB         24.3782    2.9605   -7.9317 C.3       7 UNK        -0.1935 
     47 C          26.5425    3.0496   -9.2397 C.2       7 UNK         0.5018 
     48 O          26.7895    4.0443   -9.9224 O.2       7 UNK        -0.5186 
     49 N          26.8472    1.7966   -9.6084 N.am      8 UNK        -0.4240 
     50 CA         27.6384    1.4465  -10.7924 C.3       8 UNK         0.0235 
     51 CB         27.4682   -0.0522  -11.0906 C.3       8 UNK        -0.2000 
     52 C          29.1323    1.7860  -10.6385 C.2       8 UNK         0.4941 
     53 O          29.8281    1.8802  -11.6502 O.2       8 UNK        -0.5273 
     54 N          29.5867    1.9532   -9.3868 N.am      9 UNK        -0.4262 
     55 CA         30.9518    2.2472   -8.9484 C.3       9 UNK         0.0264 
     56 CB         31.3761    3.6647   -9.3860 C.3       9 UNK        -0.1955 
     57 C          31.9392    1.1545   -9.3846 C.2       9 UNK         0.5031 
     58 O          32.9606    1.4535  -10.0078 O.2       9 UNK        -0.5390 
     59 N          31.6209   -0.1025   -9.0444 N.am      10 UNK        -0.4204 
     60 CA         32.4168   -1.2932   -9.3681 C.3       10 UNK         0.0237 
     61 CB         31.5031   -2.5282   -9.2932 C.3       10 UNK        -0.1985 
     62 C          33.6802   -1.4271   -8.4877 C.2       10 UNK         0.4970 
     63 O          33.8845   -2.4616   -7.8506 O.2       10 UNK        -0.4914 
     64 N          34.4893   -0.3655   -8.4598 N.am      11 UNK        -0.4285 
     65 CA         35.7255   -0.2078   -7.6887 C.3       11 UNK         0.1007 
     66 C          36.8586    0.3119   -8.6098 C.2       11 UNK         0.5703 
     67 N          38.1057   -0.0152   -8.2997 N.am      11 UNK        -0.7361 
     68 O          36.6272    1.0293   -9.5822 O.2       11 UNK        -0.4986 
     69 C69        35.5122    0.7458   -6.4803 C.3       12 UNK        -0.0947 
     70 S70        34.6210   -0.0629   -5.1138 S.3       12 UNK        -0.2240 
     71 C71        32.9137    0.5092   -5.3726 C.3       12 UNK         0.0194 
     72 H72        28.6369   -6.7201    0.1701 H         1 UNK         0.0906 
     73 H73        27.2756   -7.0610   -0.9010 H         1 UNK         0.0906 
     74 H74        28.6036   -6.0407   -1.4577 H         1 UNK         0.0906 
     75 H75        28.0770   -3.8667   -1.4438 H         1 UNK         0.3140 
     76 H76        26.8424   -2.5944    0.8346 H         1 UNK         0.1085 
     77 H77        27.6522   -1.4128   -1.8741 H         1 UNK         0.0836 
     78 H78        27.1287   -0.4832   -0.4926 H         1 UNK         0.0836 
     79 H79        29.4595    0.6801   -1.3820 H         1 UNK         0.0731 
     80 H80        30.9910    0.2308   -0.6860 H         1 UNK         0.0731 
     81 H81        31.7116    1.0898   -2.9903 H         1 UNK         0.1312 
     82 H82        32.0144   -1.9840   -5.9609 H         1 UNK         0.1406 
     83 H83        29.6667   -2.6476   -2.4563 H         1 UNK         0.1631 
     84 H84        29.9362   -4.4278   -3.9729 H         1 UNK         0.0717 
     85 H85        31.4061   -4.3932   -4.9117 H         1 UNK         0.0717 
     86 H86        27.2003   -3.9338   -5.7108 H         1 UNK         0.0934 
     87 H87        28.0024   -2.7293   -4.7488 H         1 UNK         0.0934 
     88 H88        27.6540   -2.3800   -7.7737 H         1 UNK         0.0739 
     89 H89        25.5231   -2.3554   -5.9174 H         1 UNK         0.3093 
     90 H90        23.3437   -0.1952   -7.7035 H         1 UNK         0.0818 
     91 H91        21.9338   -2.2170   -7.7060 H         1 UNK         0.0819 
     92 H92        23.2331   -2.4111   -8.8702 H         1 UNK         0.0819 
     93 H93        23.3194   -3.2349   -7.3181 H         1 UNK         0.0819 
     94 H94        22.7898   -1.6787   -5.3922 H         1 UNK         0.3041 
     95 H95        23.7302    0.7928   -2.9921 H         1 UNK         0.0784 
     96 H96        21.5658    1.3148   -4.1028 H         1 UNK         0.0793 
     97 H97        21.1194   -0.3841   -4.0811 H         1 UNK         0.0793 
     98 H98        21.3208    0.4964   -2.5690 H         1 UNK         0.0793 
     99 H99        23.9651   -1.0943   -1.8990 H         1 UNK         0.3024 
    100 H100       22.8171   -3.4086   -1.1030 H         1 UNK         0.1171 
    101 H101       22.1866   -5.1467   -2.7521 H         1 UNK         0.0786 
    102 H102       23.4911   -5.7260   -1.7339 H         1 UNK         0.0786 
    103 H103       23.8281   -5.1917   -3.3813 H         1 UNK         0.0786 
    104 H104       25.5036   -4.1194   -1.8937 H         1 UNK         0.2977 
    105 H105       26.8784   -0.1539   -5.1330 H         1 UNK         0.3127 
    106 H106       29.3163    1.4234   -5.3660 H         1 UNK         0.0770 
    107 H107       26.7066    1.9952   -3.8542 H         1 UNK         0.0814 
    108 H108       28.2397    2.8316   -3.6507 H         1 UNK         0.0814 
    109 H109       28.0951    1.1426   -3.1880 H         1 UNK         0.0814 
    110 H110       25.8862    1.6812   -6.3968 H         1 UNK         0.2983 
    111 H111       26.0380    4.2648   -7.5546 H         1 UNK         0.0947 
    112 H112       23.8986    3.6327   -8.6444 H         1 UNK         0.0806 
    113 H113       23.8994    3.1161   -6.9646 H         1 UNK         0.0806 
    114 H114       24.1647    1.9411   -8.2515 H         1 UNK         0.0806 
    115 H115       26.5322    1.0200   -9.0280 H         1 UNK         0.3000 
    116 H116       27.2553    2.0144  -11.6430 H         1 UNK         0.0850 
    117 H117       27.8426   -0.6692  -10.2722 H         1 UNK         0.0810 
    118 H118       26.4207   -0.3087  -11.2502 H         1 UNK         0.0810 
    119 H119       28.0136   -0.3375  -11.9912 H         1 UNK         0.0810 
    120 H120       28.9169    1.8392   -8.6381 H         1 UNK         0.3040 
    121 H121       30.9352    2.2300   -7.8574 H         1 UNK         0.0766 
    122 H122       32.3550    3.9214   -8.9795 H         1 UNK         0.0812 
    123 H123       30.6696    4.4144   -9.0292 H         1 UNK         0.0812 
    124 H124       31.4409    3.7532  -10.4709 H         1 UNK         0.0812 
    125 H125       30.7733   -0.2546   -8.5015 H         1 UNK         0.3205 
    126 H126       32.7612   -1.2039  -10.4006 H         1 UNK         0.0754 
    127 H127       32.0395   -3.4355   -9.5737 H         1 UNK         0.0769 
    128 H128       30.6501   -2.4342   -9.9656 H         1 UNK         0.0769 
    129 H129       31.1188   -2.6717   -8.2846 H         1 UNK         0.0769 
    130 H130       34.2548    0.4202   -9.0626 H         1 UNK         0.2981 
    131 H131       36.0449   -1.1844   -7.3191 H         1 UNK         0.0541 
    132 H132       38.8586    0.3219   -8.8792 H         1 UNK         0.3459 
    133 H133       38.3101   -0.5918   -7.4982 H         1 UNK         0.3459 
    134 H134       34.9906    1.6561   -6.7821 H         1 UNK         0.0612 
    135 H135       36.4708    1.0695   -6.0702 H         1 UNK         0.0612 
    136 H136       32.8347    1.5595   -5.0886 H         1 UNK         0.0624 
    137 H137       32.6533    0.4515   -6.4283 H         1 UNK         0.0624 
@<TRIPOS>BOND
     1    1    2 1    
     2    1   72 1    
     3    1   73 1    
     4    1   74 1    
     5    2    3 2    
     6    2    4 am   BACKBONE|DICT|INTERRES
     7    4    5 1    
     8    4   75 1    
     9    5    6 1    
    10    5   35 1    
    11    5   76 1    
    12    6    7 1    
    13    6   77 1    
    14    6   78 1    
    15    7    8 1    
    16    8    9 1    
    17    8   79 1    
    18    8   80 1    
    19    9   10 ar   
    20    9   14 ar   
    21   10   11 ar   
    22   10   81 1    
    23   11   12 ar   
    24   11   71 1    
    25   12   13 ar   
    26   12   82 1    
    27   13   14 ar   
    28   13   15 1    
    29   14   83 1    
    30   15   16 1    
    31   15   84 1    
    32   15   85 1    
    33   16   17 1    
    34   17   18 1    
    35   17   86 1    
    36   17   87 1    
    37   18   19 1    
    38   18   37 1    
    39   18   88 1    
    40   19   20 am   BACKBONE|DICT|INTERRES
    41   19   89 1    
    42   20   21 2    
    43   20   22 1    
    44   22   23 1    
    45   22   24 1    
    46   22   90 1    
    47   23   91 1    
    48   23   92 1    
    49   23   93 1    
    50   24   25 am   BACKBONE|DICT|INTERRES
    51   24   94 1    
    52   25   26 2    
    53   25   27 1    
    54   27   28 1    
    55   27   29 1    
    56   27   95 1    
    57   28   96 1    
    58   28   97 1    
    59   28   98 1    
    60   29   30 am   BACKBONE|DICT|INTERRES
    61   29   99 1    
    62   30   31 2    
    63   30   32 1    
    64   32   33 1    
    65   32   34 1    
    66   32  100 1    
    67   33  101 1    
    68   33  102 1    
    69   33  103 1    
    70   34   35 am   BACKBONE|DICT|INTERRES
    71   34  104 1    
    72   35   36 2    
    73   37   38 2    
    74   37   39 am   BACKBONE|DICT|INTERRES
    75   39   40 1    
    76   39  105 1    
    77   40   41 1    
    78   40   42 1    
    79   40  106 1    
    80   41  107 1    
    81   41  108 1    
    82   41  109 1    
    83   42   43 2    
    84   42   44 am   BACKBONE|DICT|INTERRES
    85   44   45 1    
    86   44  110 1    
    87   45   46 1    
    88   45   47 1    
    89   45  111 1    
    90   46  112 1    
    91   46  113 1    
    92   46  114 1    
    93   47   48 2    
    94   47   49 am   BACKBONE|DICT|INTERRES
    95   49   50 1    
    96   49  115 1    
    97   50   51 1    
    98   50   52 1    
    99   50  116 1    
   100   51  117 1    
   101   51  118 1    
   102   51  119 1    
   103   52   53 2    
   104   52   54 am   BACKBONE|DICT|INTERRES
   105   54   55 1    
   106   54  120 1    
   107   55   56 1    
   108   55   57 1    
   109   55  121 1    
   110   56  122 1    
   111   56  123 1    
   112   56  124 1    
   113   57   58 2    
   114   57   59 am   BACKBONE|DICT|INTERRES
   115   59   60 1    
   116   59  125 1    
   117   60   61 1    
   118   60   62 1    
   119   60  126 1    
   120   61  127 1    
   121   61  128 1    
   122   61  129 1    
   123   62   63 2    
   124   62   64 am   BACKBONE|DICT|INTERRES
   125   64   65 1    
   126   64  130 1    
   127   65   66 1    
   128   65   69 1    
   129   65  131 1    
   130   66   67 am   BACKBONE|DICT|INTERRES
   131   66   68 2    
   132   67  132 1    
   133   67  133 1    
   134   69   70 1    
   135   69  134 1    
   136   69  135 1    
   137   70   71 1    
   138   71  136 1    
   139   71  137 1    
@<TRIPOS>SUBSTRUCTURE
     1 UNK         1 GROUP             0       ****    0 ROOT    
