@<TRIPOS>MOLECULE
3R137
137   139    1
SMALL
USER_CHARGES


@<TRIPOS>ATOM
      1 CA         24.8493   -5.3277   -7.8398 C.3       0 UNK        -0.2020 
      2 C          24.1553   -5.2645   -6.4870 C.2       0 UNK         0.4855 
      3 O          23.0096   -5.6992   -6.3632 O.2       0 UNK        -0.5197 
      4 N          24.8462   -4.7349   -5.4716 N.am      1 UNK        -0.4892 
      5 CA         24.3200   -4.4919   -4.1256 C.3       1 UNK         0.0835 
      6 C6         25.4574   -4.4648   -3.0671 C.3       12 UNK        -0.0855 
      7 S7         26.8737   -3.3766   -3.4696 S.3       12 UNK        -0.2931 
      8 C8         28.1389   -4.6180   -3.8875 C.3       12 UNK         0.0378 
      9 C9         29.5015   -3.9739   -4.0806 C.ar      12 UNK        -0.0802 
     10 C10        29.9374   -3.5977   -5.3545 C.ar      12 UNK        -0.0944 
     11 C11        31.1927   -3.0054   -5.5276 C.ar      12 UNK        -0.0787 
     12 C12        32.0139   -2.7906   -4.4161 C.ar      12 UNK        -0.0862 
     13 C13        31.5707   -3.1284   -3.1334 C.ar      12 UNK        -0.0733 
     14 C14        30.3256   -3.7452   -2.9757 C.ar      12 UNK        -0.0832 
     15 C15        32.3947   -2.7527   -1.9103 C.3       12 UNK         0.0240 
     16 S16        31.5190   -1.5416   -0.8593 S.3       12 UNK        -0.2522 
     17 C17        31.3915   -0.0740   -1.9458 C.3       12 UNK        -0.0967 
     18 CA         30.1639   -0.1004   -2.9025 C.3       5 UNK         0.0660 
     19 N          28.8887   -0.4081   -2.2544 N.am      5 UNK        -0.4015 
     20 C          28.2081    0.3649   -1.4026 C.2       4 UNK         0.4946 
     21 O          28.5792    1.4709   -1.0039 O.2       4 UNK        -0.5353 
     22 CA         26.8494   -0.2001   -0.9543 C.3       4 UNK         0.0277 
     23 CB         26.6311   -0.0026    0.5559 C.3       4 UNK        -0.1981 
     24 N          25.7135    0.3746   -1.6814 N.am      4 UNK        -0.4209 
     25 C          25.5713    0.4879   -3.0103 C.2       3 UNK         0.4942 
     26 O          26.4238    0.1584   -3.8391 O.2       3 UNK        -0.5208 
     27 CA         24.2005    0.9926   -3.4851 C.3       3 UNK         0.0250 
     28 CB         24.2460    1.5900   -4.9015 C.3       3 UNK        -0.1990 
     29 N          23.2723   -0.1328   -3.4832 N.am      3 UNK        -0.4232 
     30 C          22.5981   -0.5883   -2.4229 C.2       2 UNK         0.4993 
     31 O          22.5872   -0.0254   -1.3273 O.2       2 UNK        -0.5286 
     32 CA         21.8404   -1.9160   -2.6032 C.3       2 UNK         0.0209 
     33 CB         20.6556   -1.7693   -3.5800 C.3       2 UNK        -0.1931 
     34 N          22.7131   -3.0468   -2.9640 N.am      2 UNK        -0.4546 
     35 C          23.4349   -3.2256   -4.0824 C.2       1 UNK         0.5154 
     36 O          23.4261   -2.4383   -5.0335 O.2       1 UNK        -0.5181 
     37 C          30.0895    1.1117   -3.8534 C.2       5 UNK         0.5014 
     38 O          31.0568    1.8674   -3.9627 O.2       5 UNK        -0.5248 
     39 N          28.9592    1.2466   -4.5587 N.am      6 UNK        -0.4434 
     40 CA         28.7703    2.1734   -5.6762 C.3       6 UNK         0.0363 
     41 CB         28.0792    3.4495   -5.1668 C.3       6 UNK        -0.1936 
     42 C          27.9918    1.5393   -6.8453 C.2       6 UNK         0.5081 
     43 O          27.9021    2.1647   -7.9013 O.2       6 UNK        -0.5248 
     44 N          27.4448    0.3278   -6.6575 N.am      7 UNK        -0.4718 
     45 CA         26.5145   -0.3676   -7.5554 C.3       7 UNK         0.0273 
     46 CB         26.1890   -1.7424   -6.9519 C.3       7 UNK        -0.1935 
     47 C          26.9573   -0.5228   -9.0199 C.2       7 UNK         0.5018 
     48 O          26.1110   -0.4263   -9.9096 O.2       7 UNK        -0.5186 
     49 N          28.2561   -0.7537   -9.2481 N.am      8 UNK        -0.4240 
     50 CA         28.8439   -0.8995  -10.5840 C.3       8 UNK         0.0235 
     51 CB         29.8051   -2.1029  -10.5894 C.3       8 UNK        -0.2000 
     52 C          29.5526    0.3807  -11.0629 C.2       8 UNK         0.4941 
     53 O          30.2373    0.3262  -12.0856 O.2       8 UNK        -0.5273 
     54 N          29.4226    1.4956  -10.3233 N.am      9 UNK        -0.4262 
     55 CA         30.0102    2.8294  -10.5419 C.3       9 UNK         0.0264 
     56 CB         29.5258    3.4498  -11.8667 C.3       9 UNK        -0.1955 
     57 C          31.5460    2.8930  -10.4301 C.2       9 UNK         0.5031 
     58 O          32.0670    3.8241   -9.8166 O.2       9 UNK        -0.5390 
     59 N          32.2418    1.9002  -10.9943 N.am      10 UNK        -0.4204 
     60 CA         33.6964    1.7247  -10.9580 C.3       10 UNK         0.0237 
     61 CB         34.1053    0.8240  -12.1369 C.3       10 UNK        -0.1985 
     62 C          34.2255    1.1553   -9.6249 C.2       10 UNK         0.4970 
     63 O          35.4367    0.9679   -9.4995 O.2       10 UNK        -0.4914 
     64 N          33.3262    0.8654   -8.6752 N.am      11 UNK        -0.4285 
     65 CA         33.6066    0.3388   -7.3319 C.3       11 UNK         0.1007 
     66 C          34.6024    1.2100   -6.5154 C.2       11 UNK         0.5703 
     67 N          35.4805    0.5873   -5.7402 N.am      11 UNK        -0.7361 
     68 O          34.5571    2.4385   -6.5466 O.2       11 UNK        -0.4986 
     69 C69        32.2963    0.1456   -6.5262 C.3       12 UNK        -0.0947 
     70 S70        31.0695   -0.9194   -7.3507 S.3       12 UNK        -0.2240 
     71 C71        31.6518   -2.5891   -6.9161 C.3       12 UNK         0.0194 
     72 H72        25.8780   -4.9712   -7.7887 H         1 UNK         0.0906 
     73 H73        24.8650   -6.3537   -8.2067 H         1 UNK         0.0906 
     74 H74        24.3134   -4.7146   -8.5640 H         1 UNK         0.0906 
     75 H75        25.7632   -4.3462   -5.6356 H         1 UNK         0.3140 
     76 H76        23.6619   -5.3267   -3.8724 H         1 UNK         0.1085 
     77 H77        25.0770   -4.1741   -2.0864 H         1 UNK         0.0836 
     78 H78        25.8247   -5.4826   -2.9277 H         1 UNK         0.0836 
     79 H79        28.1996   -5.3617   -3.0913 H         1 UNK         0.0731 
     80 H80        27.8410   -5.1554   -4.7890 H         1 UNK         0.0731 
     81 H81        29.2981   -3.7598   -6.2115 H         1 UNK         0.1312 
     82 H82        32.9785   -2.3194   -4.5443 H         1 UNK         0.1406 
     83 H83        29.9797   -4.0057   -1.9843 H         1 UNK         0.1631 
     84 H84        33.3652   -2.3450   -2.1972 H         1 UNK         0.0717 
     85 H85        32.5965   -3.6509   -1.3251 H         1 UNK         0.0717 
     86 H86        31.3450    0.8106   -1.3083 H         1 UNK         0.0934 
     87 H87        32.3183    0.0148   -2.5158 H         1 UNK         0.0934 
     88 H88        30.3042   -0.9223   -3.5964 H         1 UNK         0.0739 
     89 H89        28.4609   -1.2766   -2.5470 H         1 UNK         0.3093 
     90 H90        26.8419   -1.2746   -1.1485 H         1 UNK         0.0818 
     91 H91        25.7227   -0.5007    0.8955 H         1 UNK         0.0819 
     92 H92        27.4613   -0.4200    1.1274 H         1 UNK         0.0819 
     93 H93        26.5537    1.0534    0.8184 H         1 UNK         0.0819 
     94 H94        24.9210    0.6420   -1.1132 H         1 UNK         0.3041 
     95 H95        23.8523    1.7675   -2.7987 H         1 UNK         0.0784 
     96 H96        24.9577    2.4127   -4.9603 H         1 UNK         0.0793 
     97 H97        24.5404    0.8450   -5.6393 H         1 UNK         0.0793 
     98 H98        23.2723    1.9816   -5.1958 H         1 UNK         0.0793 
     99 H99        23.2994   -0.7448   -4.2967 H         1 UNK         0.3024 
    100 H100       21.4208   -2.1634   -1.6262 H         1 UNK         0.1171 
    101 H101       19.9794   -0.9785   -3.2528 H         1 UNK         0.0786 
    102 H102       20.0738   -2.6894   -3.6351 H         1 UNK         0.0786 
    103 H103       20.9783   -1.5188   -4.5908 H         1 UNK         0.0786 
    104 H104       22.8040   -3.7457   -2.2391 H         1 UNK         0.2977 
    105 H105       28.1544    0.6771   -4.3043 H         1 UNK         0.3127 
    106 H106       29.7429    2.4519   -6.0873 H         1 UNK         0.0770 
    107 H107       27.1284    3.2254   -4.6845 H         1 UNK         0.0814 
    108 H108       27.8809    4.1457   -5.9828 H         1 UNK         0.0814 
    109 H109       28.7043    3.9707   -4.4417 H         1 UNK         0.0814 
    110 H110       27.5340   -0.0916   -5.7430 H         1 UNK         0.2983 
    111 H111       25.5970    0.2222   -7.5741 H         1 UNK         0.0947 
    112 H112       25.4351   -2.2622   -7.5444 H         1 UNK         0.0806 
    113 H113       25.7918   -1.6442   -5.9416 H         1 UNK         0.0806 
    114 H114       27.0714   -2.3812   -6.9017 H         1 UNK         0.0806 
    115 H115       28.8885   -0.8036   -8.4594 H         1 UNK         0.3000 
    116 H116       28.0595   -1.1097  -11.3140 H         1 UNK         0.0850 
    117 H117       30.1174   -2.3442  -11.6063 H         1 UNK         0.0810 
    118 H118       30.7112   -1.9076  -10.0174 H         1 UNK         0.0810 
    119 H119       29.3317   -2.9950  -10.1791 H         1 UNK         0.0810 
    120 H120       28.8319    1.4440   -9.4972 H         1 UNK         0.3040 
    121 H121       29.6189    3.4495   -9.7336 H         1 UNK         0.0766 
    122 H122       28.4373    3.4813  -11.9136 H         1 UNK         0.0812 
    123 H123       29.8831    2.8954  -12.7350 H         1 UNK         0.0812 
    124 H124       29.8842    4.4750  -11.9689 H         1 UNK         0.0812 
    125 H125       31.7002    1.1947  -11.4937 H         1 UNK         0.3205 
    126 H126       34.1642    2.7017  -11.0957 H         1 UNK         0.0754 
    127 H127       35.1886    0.7056  -12.1869 H         1 UNK         0.0769 
    128 H128       33.7850    1.2478  -13.0890 H         1 UNK         0.0769 
    129 H129       33.6705   -0.1728  -12.0507 H         1 UNK         0.0769 
    130 H130       32.3567    1.0565   -8.8709 H         1 UNK         0.2981 
    131 H131       34.0664   -0.6401   -7.4774 H         1 UNK         0.0541 
    132 H132       35.5269   -0.4187   -5.7033 H         1 UNK         0.3459 
    133 H133       36.1236    1.1374   -5.1927 H         1 UNK         0.3459 
    134 H134       31.8223    1.1155   -6.3725 H         1 UNK         0.0612 
    135 H135       32.5007   -0.2495   -5.5311 H         1 UNK         0.0612 
    136 H136       32.7385   -2.6378   -6.9942 H         1 UNK         0.0624 
    137 H137       31.2644   -3.2929   -7.6542 H         1 UNK         0.0624 
@<TRIPOS>BOND
     1    1    2 1    
     2    1   72 1    
     3    1   73 1    
     4    1   74 1    
     5    2    3 2    
     6    2    4 am   BACKBONE|DICT|INTERRES
     7    4    5 1    
     8    4   75 1    
     9    5    6 1    
    10    5   35 1    
    11    5   76 1    
    12    6    7 1    
    13    6   77 1    
    14    6   78 1    
    15    7    8 1    
    16    8    9 1    
    17    8   79 1    
    18    8   80 1    
    19    9   10 ar   
    20    9   14 ar   
    21   10   11 ar   
    22   10   81 1    
    23   11   12 ar   
    24   11   71 1    
    25   12   13 ar   
    26   12   82 1    
    27   13   14 ar   
    28   13   15 1    
    29   14   83 1    
    30   15   16 1    
    31   15   84 1    
    32   15   85 1    
    33   16   17 1    
    34   17   18 1    
    35   17   86 1    
    36   17   87 1    
    37   18   19 1    
    38   18   37 1    
    39   18   88 1    
    40   19   20 am   BACKBONE|DICT|INTERRES
    41   19   89 1    
    42   20   21 2    
    43   20   22 1    
    44   22   23 1    
    45   22   24 1    
    46   22   90 1    
    47   23   91 1    
    48   23   92 1    
    49   23   93 1    
    50   24   25 am   BACKBONE|DICT|INTERRES
    51   24   94 1    
    52   25   26 2    
    53   25   27 1    
    54   27   28 1    
    55   27   29 1    
    56   27   95 1    
    57   28   96 1    
    58   28   97 1    
    59   28   98 1    
    60   29   30 am   BACKBONE|DICT|INTERRES
    61   29   99 1    
    62   30   31 2    
    63   30   32 1    
    64   32   33 1    
    65   32   34 1    
    66   32  100 1    
    67   33  101 1    
    68   33  102 1    
    69   33  103 1    
    70   34   35 am   BACKBONE|DICT|INTERRES
    71   34  104 1    
    72   35   36 2    
    73   37   38 2    
    74   37   39 am   BACKBONE|DICT|INTERRES
    75   39   40 1    
    76   39  105 1    
    77   40   41 1    
    78   40   42 1    
    79   40  106 1    
    80   41  107 1    
    81   41  108 1    
    82   41  109 1    
    83   42   43 2    
    84   42   44 am   BACKBONE|DICT|INTERRES
    85   44   45 1    
    86   44  110 1    
    87   45   46 1    
    88   45   47 1    
    89   45  111 1    
    90   46  112 1    
    91   46  113 1    
    92   46  114 1    
    93   47   48 2    
    94   47   49 am   BACKBONE|DICT|INTERRES
    95   49   50 1    
    96   49  115 1    
    97   50   51 1    
    98   50   52 1    
    99   50  116 1    
   100   51  117 1    
   101   51  118 1    
   102   51  119 1    
   103   52   53 2    
   104   52   54 am   BACKBONE|DICT|INTERRES
   105   54   55 1    
   106   54  120 1    
   107   55   56 1    
   108   55   57 1    
   109   55  121 1    
   110   56  122 1    
   111   56  123 1    
   112   56  124 1    
   113   57   58 2    
   114   57   59 am   BACKBONE|DICT|INTERRES
   115   59   60 1    
   116   59  125 1    
   117   60   61 1    
   118   60   62 1    
   119   60  126 1    
   120   61  127 1    
   121   61  128 1    
   122   61  129 1    
   123   62   63 2    
   124   62   64 am   BACKBONE|DICT|INTERRES
   125   64   65 1    
   126   64  130 1    
   127   65   66 1    
   128   65   69 1    
   129   65  131 1    
   130   66   67 am   BACKBONE|DICT|INTERRES
   131   66   68 2    
   132   67  132 1    
   133   67  133 1    
   134   69   70 1    
   135   69  134 1    
   136   69  135 1    
   137   70   71 1    
   138   71  136 1    
   139   71  137 1    
@<TRIPOS>SUBSTRUCTURE
     1 UNK         1 GROUP             0       ****    0 ROOT    
