@<TRIPOS>MOLECULE
3R137
137   139    1
SMALL
USER_CHARGES


@<TRIPOS>ATOM
      1 CA         30.4271    0.8630   -3.3293 C.3       0 UNK        -0.2020 
      2 C          29.4081   -0.1854   -2.9122 C.2       0 UNK         0.4855 
      3 O          28.2668   -0.1385   -3.3668 O.2       0 UNK        -0.5197 
      4 N          29.8039   -1.1338   -2.0526 N.am      1 UNK        -0.4892 
      5 CA         28.9298   -2.1916   -1.5331 C.3       1 UNK         0.0835 
      6 C6         29.7272   -3.2555   -0.7354 C.3       12 UNK        -0.0855 
      7 S7         28.9510   -4.9039   -0.8545 S.3       12 UNK        -0.2931 
      8 C8         30.1733   -5.8382   -1.8340 C.3       12 UNK         0.0378 
      9 C9         30.3614   -5.2614   -3.2310 C.ar      12 UNK        -0.0802 
     10 C10        31.5292   -4.5613   -3.5534 C.ar      12 UNK        -0.0944 
     11 C11        31.7044   -4.0266   -4.8327 C.ar      12 UNK        -0.0787 
     12 C12        30.7084   -4.2040   -5.7948 C.ar      12 UNK        -0.0862 
     13 C13        29.5315   -4.8898   -5.4824 C.ar      12 UNK        -0.0733 
     14 C14        29.3682   -5.4280   -4.2019 C.ar      12 UNK        -0.0832 
     15 C15        28.4289   -5.0203   -6.5247 C.3       12 UNK         0.0240 
     16 S16        26.9571   -4.0345   -6.0944 S.3       12 UNK        -0.2522 
     17 C17        27.6377   -2.3455   -5.9533 C.3       12 UNK        -0.0967 
     18 CA         27.0974   -1.3721   -7.0255 C.3       5 UNK         0.0660 
     19 N          25.6337   -1.3039   -6.9877 N.am      5 UNK        -0.4015 
     20 C          24.8246   -0.4301   -7.6030 C.2       4 UNK         0.4946 
     21 O          25.2047    0.3726   -8.4570 O.2       4 UNK        -0.5353 
     22 CA         23.3562   -0.3906   -7.1337 C.3       4 UNK         0.0277 
     23 CB         22.4386   -0.9859   -8.2134 C.3       4 UNK        -0.1981 
     24 N          23.0946   -1.0622   -5.8491 N.am      4 UNK        -0.4209 
     25 C          23.6894   -0.7985   -4.6739 C.2       3 UNK         0.4942 
     26 O          24.5371    0.0865   -4.5196 O.2       3 UNK        -0.5208 
     27 CA         23.3271   -1.7231   -3.5005 C.3       3 UNK         0.0250 
     28 CB         23.2997   -3.2128   -3.9160 C.3       3 UNK        -0.1990 
     29 N          24.2975   -1.5258   -2.4248 N.am      3 UNK        -0.4232 
     30 C          24.1360   -1.8896   -1.1469 C.2       2 UNK         0.4993 
     31 O          23.1082   -2.4128   -0.7121 O.2       2 UNK        -0.5286 
     32 CA         25.3396   -1.6683   -0.2171 C.3       2 UNK         0.0209 
     33 CB         25.1881   -2.3612    1.1530 C.3       2 UNK        -0.1931 
     34 N          26.5627   -2.1291   -0.8764 N.am      2 UNK        -0.4546 
     35 C          27.7767   -1.6007   -0.6897 C.2       1 UNK         0.5154 
     36 O          28.0112   -0.6919    0.1123 O.2       1 UNK        -0.5181 
     37 C          27.7809    0.0011   -6.8510 C.2       5 UNK         0.5014 
     38 O          28.8067    0.2394   -7.4882 O.2       5 UNK        -0.5248 
     39 N          27.1854    0.8952   -6.0475 N.am      6 UNK        -0.4434 
     40 CA         27.6419    2.2705   -5.8322 C.3       6 UNK         0.0363 
     41 CB         26.7605    2.9265   -4.7585 C.3       6 UNK        -0.1936 
     42 C          27.6736    3.1337   -7.1085 C.2       6 UNK         0.5081 
     43 O          28.4502    4.0871   -7.1606 O.2       6 UNK        -0.5248 
     44 N          26.8551    2.7826   -8.1089 N.am      7 UNK        -0.4718 
     45 CA         26.8585    3.3868   -9.4399 C.3       7 UNK         0.0273 
     46 CB         25.4195    3.7668   -9.8264 C.3       7 UNK        -0.1935 
     47 C          27.4583    2.4290  -10.4805 C.2       7 UNK         0.5018 
     48 O          28.2228    2.8771  -11.3351 O.2       7 UNK        -0.5186 
     49 N          27.0897    1.1406  -10.4099 N.am      8 UNK        -0.4240 
     50 CA         27.4552    0.1173  -11.3933 C.3       8 UNK         0.0235 
     51 CB         26.5593   -1.1183  -11.2070 C.3       8 UNK        -0.2000 
     52 C          28.9410   -0.2787  -11.3691 C.2       8 UNK         0.4941 
     53 O          29.5157   -0.4935  -12.4374 O.2       8 UNK        -0.5273 
     54 N          29.5299   -0.3753  -10.1704 N.am      9 UNK        -0.4262 
     55 CA         30.9472   -0.6818   -9.9602 C.3       9 UNK         0.0264 
     56 CB         31.0899   -1.8114   -8.9236 C.3       9 UNK        -0.1955 
     57 C          31.7097    0.5692   -9.5049 C.2       9 UNK         0.5031 
     58 O          32.8165    0.8051   -9.9905 O.2       9 UNK        -0.5390 
     59 N          31.1030    1.3409   -8.5881 N.am      10 UNK        -0.4204 
     60 CA         31.6170    2.5737   -7.9772 C.3       10 UNK         0.0237 
     61 CB         31.6947    3.7099   -9.0184 C.3       10 UNK        -0.1985 
     62 C          32.9349    2.3611   -7.2046 C.2       10 UNK         0.4970 
     63 O          33.8146    3.2235   -7.2260 O.2       10 UNK        -0.4914 
     64 N          33.0386    1.2083   -6.5323 N.am      11 UNK        -0.4285 
     65 CA         34.1950    0.7746   -5.7335 C.3       11 UNK         0.1007 
     66 C          34.3875    1.5070   -4.3711 C.2       11 UNK         0.5703 
     67 N          33.4987    2.4038   -3.9598 N.am      11 UNK        -0.7361 
     68 O          35.3757    1.2686   -3.6806 O.2       11 UNK        -0.4986 
     69 C69        34.2213   -0.7717   -5.5891 C.3       12 UNK        -0.0947 
     70 S70        32.6875   -1.4648   -4.8852 S.3       12 UNK        -0.2240 
     71 C71        32.9558   -3.2369   -5.1767 C.3       12 UNK         0.0194 
     72 H72        31.3945    0.7000   -2.8547 H         1 UNK         0.0906 
     73 H73        30.5684    0.8339   -4.4091 H         1 UNK         0.0906 
     74 H74        30.0756    1.8575   -3.0563 H         1 UNK         0.0906 
     75 H75        30.7444   -1.1138   -1.6865 H         1 UNK         0.3140 
     76 H76        28.4985   -2.6714   -2.4156 H         1 UNK         0.1085 
     77 H77        30.7488   -3.3266   -1.1095 H         1 UNK         0.0836 
     78 H78        29.8288   -2.9809    0.3168 H         1 UNK         0.0836 
     79 H79        31.1212   -5.8650   -1.2940 H         1 UNK         0.0731 
     80 H80        29.8418   -6.8744   -1.9151 H         1 UNK         0.0731 
     81 H81        32.2988   -4.4212   -2.8067 H         1 UNK         0.1312 
     82 H82        30.8407   -3.7827   -6.7813 H         1 UNK         0.1406 
     83 H83        28.4570   -5.9558   -3.9539 H         1 UNK         0.1631 
     84 H84        28.1399   -6.0683   -6.6149 H         1 UNK         0.0717 
     85 H85        28.7842   -4.7137   -7.5099 H         1 UNK         0.0717 
     86 H86        27.3898   -1.9862   -4.9532 H         1 UNK         0.0934 
     87 H87        28.7266   -2.3733   -5.9926 H         1 UNK         0.0934 
     88 H88        27.3784   -1.7526   -8.0080 H         1 UNK         0.0739 
     89 H89        25.2032   -1.9375   -6.3317 H         1 UNK         0.3093 
     90 H90        23.0978    0.6624   -7.0058 H         1 UNK         0.0818 
     91 H91        21.3869   -0.8667   -7.9524 H         1 UNK         0.0819 
     92 H92        22.5890   -0.4875   -9.1725 H         1 UNK         0.0819 
     93 H93        22.6306   -2.0488   -8.3660 H         1 UNK         0.0819 
     94 H94        22.4136   -1.8079   -5.8745 H         1 UNK         0.3041 
     95 H95        22.3391   -1.4260   -3.1427 H         1 UNK         0.0784 
     96 H96        22.5264   -3.4141   -4.6576 H         1 UNK         0.0793 
     97 H97        24.2545   -3.5307   -4.3373 H         1 UNK         0.0793 
     98 H98        23.0848   -3.8613   -3.0667 H         1 UNK         0.0793 
     99 H99        25.1311   -1.0207   -2.7034 H         1 UNK         0.3024 
    100 H100       25.4013   -0.5899   -0.0516 H         1 UNK         0.1171 
    101 H101       26.0373   -2.1484    1.8024 H         1 UNK         0.0786 
    102 H102       24.2929   -2.0154    1.6715 H         1 UNK         0.0786 
    103 H103       25.1100   -3.4439    1.0479 H         1 UNK         0.0786 
    104 H104       26.4476   -2.8824   -1.5415 H         1 UNK         0.2977 
    105 H105       26.3579    0.6106   -5.5335 H         1 UNK         0.3127 
    106 H106       28.6636    2.2189   -5.4522 H         1 UNK         0.0770 
    107 H107       25.7157    2.9717   -5.0684 H         1 UNK         0.0814 
    108 H108       27.0873    3.9465   -4.5518 H         1 UNK         0.0814 
    109 H109       26.8072    2.3741   -3.8194 H         1 UNK         0.0814 
    110 H110       26.2575    1.9711   -7.9857 H         1 UNK         0.2983 
    111 H111       27.4615    4.2977   -9.4460 H         1 UNK         0.0947 
    112 H112       25.3871    4.2126  -10.8215 H         1 UNK         0.0806 
    113 H113       25.0046    4.4964   -9.1310 H         1 UNK         0.0806 
    114 H114       24.7579    2.8994   -9.8342 H         1 UNK         0.0806 
    115 H115       26.4217    0.8628   -9.6928 H         1 UNK         0.3000 
    116 H116       27.2487    0.5291  -12.3838 H         1 UNK         0.0850 
    117 H117       26.7813   -1.8781  -11.9576 H         1 UNK         0.0810 
    118 H118       25.5046   -0.8616  -11.3084 H         1 UNK         0.0810 
    119 H119       26.6969   -1.5774  -10.2288 H         1 UNK         0.0810 
    120 H120       28.9947   -0.1463   -9.3388 H         1 UNK         0.3040 
    121 H121       31.4039   -1.0263  -10.8905 H         1 UNK         0.0766 
    122 H122       30.6882   -1.5325   -7.9494 H         1 UNK         0.0812 
    123 H123       32.1388   -2.0728   -8.7766 H         1 UNK         0.0812 
    124 H124       30.5740   -2.7139   -9.2514 H         1 UNK         0.0812 
    125 H125       30.2130    1.0103   -8.2137 H         1 UNK         0.3205 
    126 H126       30.8809    2.8677   -7.2284 H         1 UNK         0.0754 
    127 H127       31.9497    4.6586   -8.5446 H         1 UNK         0.0769 
    128 H128       30.7370    3.8482   -9.5211 H         1 UNK         0.0769 
    129 H129       32.4493    3.5117   -9.7802 H         1 UNK         0.0769 
    130 H130       32.2674    0.5586   -6.5590 H         1 UNK         0.2981 
    131 H131       35.0825    1.0414   -6.3103 H         1 UNK         0.0541 
    132 H132       32.7031    2.6345   -4.5300 H         1 UNK         0.3459 
    133 H133       33.6477    2.8756   -3.0822 H         1 UNK         0.3459 
    134 H134       35.0695   -1.0985   -4.9849 H         1 UNK         0.0612 
    135 H135       34.3709   -1.2169   -6.5740 H         1 UNK         0.0612 
    136 H136       33.8020   -3.5795   -4.5793 H         1 UNK         0.0624 
    137 H137       33.2232   -3.4001   -6.2220 H         1 UNK         0.0624 
@<TRIPOS>BOND
     1    1    2 1    
     2    1   72 1    
     3    1   73 1    
     4    1   74 1    
     5    2    3 2    
     6    2    4 am   BACKBONE|DICT|INTERRES
     7    4    5 1    
     8    4   75 1    
     9    5    6 1    
    10    5   35 1    
    11    5   76 1    
    12    6    7 1    
    13    6   77 1    
    14    6   78 1    
    15    7    8 1    
    16    8    9 1    
    17    8   79 1    
    18    8   80 1    
    19    9   10 ar   
    20    9   14 ar   
    21   10   11 ar   
    22   10   81 1    
    23   11   12 ar   
    24   11   71 1    
    25   12   13 ar   
    26   12   82 1    
    27   13   14 ar   
    28   13   15 1    
    29   14   83 1    
    30   15   16 1    
    31   15   84 1    
    32   15   85 1    
    33   16   17 1    
    34   17   18 1    
    35   17   86 1    
    36   17   87 1    
    37   18   19 1    
    38   18   37 1    
    39   18   88 1    
    40   19   20 am   BACKBONE|DICT|INTERRES
    41   19   89 1    
    42   20   21 2    
    43   20   22 1    
    44   22   23 1    
    45   22   24 1    
    46   22   90 1    
    47   23   91 1    
    48   23   92 1    
    49   23   93 1    
    50   24   25 am   BACKBONE|DICT|INTERRES
    51   24   94 1    
    52   25   26 2    
    53   25   27 1    
    54   27   28 1    
    55   27   29 1    
    56   27   95 1    
    57   28   96 1    
    58   28   97 1    
    59   28   98 1    
    60   29   30 am   BACKBONE|DICT|INTERRES
    61   29   99 1    
    62   30   31 2    
    63   30   32 1    
    64   32   33 1    
    65   32   34 1    
    66   32  100 1    
    67   33  101 1    
    68   33  102 1    
    69   33  103 1    
    70   34   35 am   BACKBONE|DICT|INTERRES
    71   34  104 1    
    72   35   36 2    
    73   37   38 2    
    74   37   39 am   BACKBONE|DICT|INTERRES
    75   39   40 1    
    76   39  105 1    
    77   40   41 1    
    78   40   42 1    
    79   40  106 1    
    80   41  107 1    
    81   41  108 1    
    82   41  109 1    
    83   42   43 2    
    84   42   44 am   BACKBONE|DICT|INTERRES
    85   44   45 1    
    86   44  110 1    
    87   45   46 1    
    88   45   47 1    
    89   45  111 1    
    90   46  112 1    
    91   46  113 1    
    92   46  114 1    
    93   47   48 2    
    94   47   49 am   BACKBONE|DICT|INTERRES
    95   49   50 1    
    96   49  115 1    
    97   50   51 1    
    98   50   52 1    
    99   50  116 1    
   100   51  117 1    
   101   51  118 1    
   102   51  119 1    
   103   52   53 2    
   104   52   54 am   BACKBONE|DICT|INTERRES
   105   54   55 1    
   106   54  120 1    
   107   55   56 1    
   108   55   57 1    
   109   55  121 1    
   110   56  122 1    
   111   56  123 1    
   112   56  124 1    
   113   57   58 2    
   114   57   59 am   BACKBONE|DICT|INTERRES
   115   59   60 1    
   116   59  125 1    
   117   60   61 1    
   118   60   62 1    
   119   60  126 1    
   120   61  127 1    
   121   61  128 1    
   122   61  129 1    
   123   62   63 2    
   124   62   64 am   BACKBONE|DICT|INTERRES
   125   64   65 1    
   126   64  130 1    
   127   65   66 1    
   128   65   69 1    
   129   65  131 1    
   130   66   67 am   BACKBONE|DICT|INTERRES
   131   66   68 2    
   132   67  132 1    
   133   67  133 1    
   134   69   70 1    
   135   69  134 1    
   136   69  135 1    
   137   70   71 1    
   138   71  136 1    
   139   71  137 1    
@<TRIPOS>SUBSTRUCTURE
     1 UNK         1 GROUP             0       ****    0 ROOT    
