@<TRIPOS>MOLECULE
3R137
137   139    1
SMALL
USER_CHARGES


@<TRIPOS>ATOM
      1 CA         25.4694   -6.2825   -3.4241 C.3       0 UNK        -0.2020 
      2 C          25.6856   -5.6335   -2.0665 C.2       0 UNK         0.4855 
      3 O          24.8124   -5.7207   -1.2029 O.2       0 UNK        -0.5197 
      4 N          26.8482   -4.9971   -1.8660 N.am      1 UNK        -0.4892 
      5 CA         27.2491   -4.3722   -0.5954 C.3       1 UNK         0.0835 
      6 C6         28.7629   -4.0492   -0.5461 C.3       12 UNK        -0.0855 
      7 S7         29.7883   -5.5302   -0.8620 S.3       12 UNK        -0.2931 
      8 C8         31.3156   -4.8206   -1.5664 C.3       12 UNK         0.0378 
      9 C9         31.0628   -3.9599   -2.7985 C.ar      12 UNK        -0.0802 
     10 C10        31.5258   -2.6394   -2.8329 C.ar      12 UNK        -0.0944 
     11 C11        31.2754   -1.8271   -3.9421 C.ar      12 UNK        -0.0787 
     12 C12        30.5378   -2.3431   -5.0105 C.ar      12 UNK        -0.0862 
     13 C13        30.0899   -3.6653   -5.0029 C.ar      12 UNK        -0.0733 
     14 C14        30.3654   -4.4748   -3.8977 C.ar      12 UNK        -0.0832 
     15 C15        29.3260   -4.2127   -6.2004 C.3       12 UNK         0.0240 
     16 S16        27.5845   -4.5951   -5.8291 S.3       12 UNK        -0.2522 
     17 C17        26.9305   -3.0244   -5.1741 C.3       12 UNK        -0.0967 
     18 CA         26.4927   -2.0259   -6.2808 C.3       5 UNK         0.0660 
     19 N          25.2481   -1.3405   -5.9323 N.am      5 UNK        -0.4015 
     20 C          24.4449   -0.7137   -6.8030 C.2       4 UNK         0.4946 
     21 O          24.6172   -0.7190   -8.0217 O.2       4 UNK        -0.5353 
     22 CA         23.2628    0.0780   -6.2120 C.3       4 UNK         0.0277 
     23 CB         22.0128   -0.8116   -6.1186 C.3       4 UNK        -0.1981 
     24 N          23.5526    0.6528   -4.8937 N.am      4 UNK        -0.4209 
     25 C          24.4685    1.6067   -4.6713 C.2       3 UNK         0.4942 
     26 O          25.1197    2.1441   -5.5645 O.2       3 UNK        -0.5208 
     27 CA         24.7487    1.9914   -3.2077 C.3       3 UNK         0.0250 
     28 CB         23.8278    3.1423   -2.7728 C.3       3 UNK        -0.1990 
     29 N          24.6371    0.8856   -2.2483 N.am      3 UNK        -0.4232 
     30 C          25.2963   -0.2803   -2.3116 C.2       2 UNK         0.4993 
     31 O          26.0500   -0.5978   -3.2379 O.2       2 UNK        -0.5286 
     32 CA         25.0254   -1.2679   -1.1708 C.3       2 UNK         0.0209 
     33 CB         23.5703   -1.7743   -1.2075 C.3       2 UNK        -0.1931 
     34 N          25.9273   -2.4118   -1.2796 N.am      2 UNK        -0.4546 
     35 C          26.4075   -3.1238   -0.2526 C.2       1 UNK         0.5154 
     36 O          26.1911   -2.8468    0.9286 O.2       1 UNK        -0.5181 
     37 C          27.5909   -0.9876   -6.5723 C.2       5 UNK         0.5014 
     38 O          28.2736   -1.0880   -7.5919 O.2       5 UNK        -0.5248 
     39 N          27.7191    0.0106   -5.6845 N.am      6 UNK        -0.4434 
     40 CA         28.6921    1.1034   -5.7854 C.3       6 UNK         0.0363 
     41 CB         28.6485    1.9467   -4.5019 C.3       6 UNK        -0.1936 
     42 C          28.5089    1.9987   -7.0232 C.2       6 UNK         0.5081 
     43 O          29.4921    2.5504   -7.5126 O.2       6 UNK        -0.5248 
     44 N          27.2672    2.1279   -7.5067 N.am      7 UNK        -0.4718 
     45 CA         26.9294    2.8150   -8.7534 C.3       7 UNK         0.0273 
     46 CB         25.4313    3.1602   -8.7440 C.3       7 UNK        -0.1935 
     47 C          27.2791    1.9947  -10.0085 C.2       7 UNK         0.5018 
     48 O          27.5215    2.5897  -11.0595 O.2       7 UNK        -0.5186 
     49 N          27.2703    0.6591   -9.8942 N.am      8 UNK        -0.4240 
     50 CA         27.5631   -0.2666  -10.9890 C.3       8 UNK         0.0235 
     51 CB         26.8164   -1.5914  -10.7573 C.3       8 UNK        -0.2000 
     52 C          29.0717   -0.5072  -11.1447 C.2       8 UNK         0.4941 
     53 O          29.5789   -0.4620  -12.2668 O.2       8 UNK        -0.5273 
     54 N          29.7563   -0.7709  -10.0249 N.am      9 UNK        -0.4262 
     55 CA         31.2029   -0.9834   -9.9614 C.3       9 UNK         0.0264 
     56 CB         31.5209   -1.7797   -8.6874 C.3       9 UNK        -0.1955 
     57 C          31.9768    0.3453   -9.9680 C.2       9 UNK         0.5031 
     58 O          31.4014    1.4085   -9.7309 O.2       9 UNK        -0.5390 
     59 N          33.2952    0.2633  -10.1825 N.am      10 UNK        -0.4204 
     60 CA         34.2242    1.3989  -10.1614 C.3       10 UNK         0.0237 
     61 CB         35.4406    1.0606  -11.0452 C.3       10 UNK        -0.1985 
     62 C          34.6270    1.8141   -8.7280 C.2       10 UNK         0.4970 
     63 O          35.8152    1.9987   -8.4570 O.2       10 UNK        -0.4914 
     64 N          33.6405    1.9478   -7.8327 N.am      11 UNK        -0.4285 
     65 CA         33.8270    2.3678   -6.4321 C.3       11 UNK         0.1007 
     66 C          33.9524    3.9081   -6.2445 C.2       11 UNK         0.5703 
     67 N          33.7195    4.7286   -7.2627 N.am      11 UNK        -0.7361 
     68 O          34.2833    4.3682   -5.1541 O.2       11 UNK        -0.4986 
     69 C69        32.7366    1.7766   -5.4995 C.3       12 UNK        -0.0947 
     70 S70        32.7457   -0.0450   -5.4881 S.3       12 UNK        -0.2240 
     71 C71        31.7790   -0.3892   -3.9815 C.3       12 UNK         0.0194 
     72 H72        24.9269   -5.6074   -4.0853 H         1 UNK         0.0906 
     73 H73        26.4157   -6.5457   -3.8955 H         1 UNK         0.0906 
     74 H74        24.8866   -7.1972   -3.3188 H         1 UNK         0.0906 
     75 H75        27.5447   -4.9828   -2.5978 H         1 UNK         0.3140 
     76 H76        27.0462   -5.0998    0.1942 H         1 UNK         0.1085 
     77 H77        29.0389   -3.6524    0.4330 H         1 UNK         0.0836 
     78 H78        29.0002   -3.2671   -1.2689 H         1 UNK         0.0836 
     79 H79        31.8209   -4.2463   -0.7882 H         1 UNK         0.0731 
     80 H80        31.9911   -5.6334   -1.8360 H         1 UNK         0.0731 
     81 H81        32.0770   -2.2408   -1.9920 H         1 UNK         0.1312 
     82 H82        30.3247   -1.7119   -5.8589 H         1 UNK         0.1406 
     83 H83        30.0182   -5.4993   -3.8835 H         1 UNK         0.1631 
     84 H84        29.8169   -5.1222   -6.5492 H         1 UNK         0.0717 
     85 H85        29.3593   -3.5141   -7.0366 H         1 UNK         0.0717 
     86 H86        26.0657   -3.3051   -4.5714 H         1 UNK         0.0934 
     87 H87        27.6313   -2.5860   -4.4607 H         1 UNK         0.0934 
     88 H88        26.3081   -2.5791   -7.2046 H         1 UNK         0.0739 
     89 H89        25.0830   -1.2094   -4.9419 H         1 UNK         0.3093 
     90 H90        23.0471    0.9018   -6.8962 H         1 UNK         0.0818 
     91 H91        21.1451   -0.2434   -5.7829 H         1 UNK         0.0819 
     92 H92        21.7627   -1.2348   -7.0927 H         1 UNK         0.0819 
     93 H93        22.1576   -1.6445   -5.4293 H         1 UNK         0.0819 
     94 H94        23.0505    0.2741   -4.1039 H         1 UNK         0.3041 
     95 H95        25.7781    2.3489   -3.1594 H         1 UNK         0.0784 
     96 H96        23.9092    3.9875   -3.4583 H         1 UNK         0.0793 
     97 H97        22.7805    2.8381   -2.7537 H         1 UNK         0.0793 
     98 H98        24.0903    3.5087   -1.7801 H         1 UNK         0.0793 
     99 H99        24.0311    1.0489   -1.4568 H         1 UNK         0.3024 
    100 H100       25.2101   -0.7441   -0.2299 H         1 UNK         0.1171 
    101 H101       22.8565   -0.9582   -1.0906 H         1 UNK         0.0786 
    102 H102       23.3788   -2.4816   -0.4001 H         1 UNK         0.0786 
    103 H103       23.3434   -2.2784   -2.1479 H         1 UNK         0.0786 
    104 H104       26.2117   -2.6472   -2.2200 H         1 UNK         0.2977 
    105 H105       27.1269   -0.0015   -4.8598 H         1 UNK         0.3127 
    106 H106       29.6787    0.6468   -5.8704 H         1 UNK         0.0770 
    107 H107       27.7218    2.5154   -4.4306 H         1 UNK         0.0814 
    108 H108       29.4694    2.6647   -4.4836 H         1 UNK         0.0814 
    109 H109       28.7343    1.3286   -3.6081 H         1 UNK         0.0814 
    110 H110       26.4948    1.7599   -6.9597 H         1 UNK         0.2983 
    111 H111       27.4963    3.7475   -8.8004 H         1 UNK         0.0947 
    112 H112       25.1449    3.6888   -9.6542 H         1 UNK         0.0806 
    113 H113       25.1789    3.8046   -7.9016 H         1 UNK         0.0806 
    114 H114       24.8125    2.2642   -8.6760 H         1 UNK         0.0806 
    115 H115       27.1017    0.2507   -8.9840 H         1 UNK         0.3000 
    116 H116       27.1950    0.1623  -11.9237 H         1 UNK         0.0850 
    117 H117       26.9959   -2.2882  -11.5770 H         1 UNK         0.0810 
    118 H118       25.7395   -1.4321  -10.6959 H         1 UNK         0.0810 
    119 H119       27.1311   -2.0833   -9.8364 H         1 UNK         0.0810 
    120 H120       29.2548   -0.7809   -9.1389 H         1 UNK         0.3040 
    121 H121       31.5133   -1.5691  -10.8294 H         1 UNK         0.0766 
    122 H122       32.5838   -2.0113   -8.6105 H         1 UNK         0.0812 
    123 H123       30.9816   -2.7262   -8.6647 H         1 UNK         0.0812 
    124 H124       31.2469   -1.2119   -7.8000 H         1 UNK         0.0812 
    125 H125       33.7067   -0.6481  -10.3265 H         1 UNK         0.3205 
    126 H126       33.7284    2.2633  -10.6086 H         1 UNK         0.0754 
    127 H127       36.1241    1.9081  -11.1142 H         1 UNK         0.0769 
    128 H128       35.1356    0.8133  -12.0623 H         1 UNK         0.0769 
    129 H129       36.0058    0.2160  -10.6489 H         1 UNK         0.0769 
    130 H130       32.6852    1.8100   -8.1448 H         1 UNK         0.2981 
    131 H131       34.7820    1.9632   -6.0912 H         1 UNK         0.0541 
    132 H132       33.4399    4.3645   -8.1590 H         1 UNK         0.3459 
    133 H133       33.8115    5.7229   -7.1264 H         1 UNK         0.3459 
    134 H134       31.7467    2.1211   -5.8023 H         1 UNK         0.0612 
    135 H135       32.8839    2.1173   -4.4728 H         1 UNK         0.0612 
    136 H136       30.9252    0.2838   -3.9259 H         1 UNK         0.0624 
    137 H137       32.4015   -0.1704   -3.1127 H         1 UNK         0.0624 
@<TRIPOS>BOND
     1    1    2 1    
     2    1   72 1    
     3    1   73 1    
     4    1   74 1    
     5    2    3 2    
     6    2    4 am   BACKBONE|DICT|INTERRES
     7    4    5 1    
     8    4   75 1    
     9    5    6 1    
    10    5   35 1    
    11    5   76 1    
    12    6    7 1    
    13    6   77 1    
    14    6   78 1    
    15    7    8 1    
    16    8    9 1    
    17    8   79 1    
    18    8   80 1    
    19    9   10 ar   
    20    9   14 ar   
    21   10   11 ar   
    22   10   81 1    
    23   11   12 ar   
    24   11   71 1    
    25   12   13 ar   
    26   12   82 1    
    27   13   14 ar   
    28   13   15 1    
    29   14   83 1    
    30   15   16 1    
    31   15   84 1    
    32   15   85 1    
    33   16   17 1    
    34   17   18 1    
    35   17   86 1    
    36   17   87 1    
    37   18   19 1    
    38   18   37 1    
    39   18   88 1    
    40   19   20 am   BACKBONE|DICT|INTERRES
    41   19   89 1    
    42   20   21 2    
    43   20   22 1    
    44   22   23 1    
    45   22   24 1    
    46   22   90 1    
    47   23   91 1    
    48   23   92 1    
    49   23   93 1    
    50   24   25 am   BACKBONE|DICT|INTERRES
    51   24   94 1    
    52   25   26 2    
    53   25   27 1    
    54   27   28 1    
    55   27   29 1    
    56   27   95 1    
    57   28   96 1    
    58   28   97 1    
    59   28   98 1    
    60   29   30 am   BACKBONE|DICT|INTERRES
    61   29   99 1    
    62   30   31 2    
    63   30   32 1    
    64   32   33 1    
    65   32   34 1    
    66   32  100 1    
    67   33  101 1    
    68   33  102 1    
    69   33  103 1    
    70   34   35 am   BACKBONE|DICT|INTERRES
    71   34  104 1    
    72   35   36 2    
    73   37   38 2    
    74   37   39 am   BACKBONE|DICT|INTERRES
    75   39   40 1    
    76   39  105 1    
    77   40   41 1    
    78   40   42 1    
    79   40  106 1    
    80   41  107 1    
    81   41  108 1    
    82   41  109 1    
    83   42   43 2    
    84   42   44 am   BACKBONE|DICT|INTERRES
    85   44   45 1    
    86   44  110 1    
    87   45   46 1    
    88   45   47 1    
    89   45  111 1    
    90   46  112 1    
    91   46  113 1    
    92   46  114 1    
    93   47   48 2    
    94   47   49 am   BACKBONE|DICT|INTERRES
    95   49   50 1    
    96   49  115 1    
    97   50   51 1    
    98   50   52 1    
    99   50  116 1    
   100   51  117 1    
   101   51  118 1    
   102   51  119 1    
   103   52   53 2    
   104   52   54 am   BACKBONE|DICT|INTERRES
   105   54   55 1    
   106   54  120 1    
   107   55   56 1    
   108   55   57 1    
   109   55  121 1    
   110   56  122 1    
   111   56  123 1    
   112   56  124 1    
   113   57   58 2    
   114   57   59 am   BACKBONE|DICT|INTERRES
   115   59   60 1    
   116   59  125 1    
   117   60   61 1    
   118   60   62 1    
   119   60  126 1    
   120   61  127 1    
   121   61  128 1    
   122   61  129 1    
   123   62   63 2    
   124   62   64 am   BACKBONE|DICT|INTERRES
   125   64   65 1    
   126   64  130 1    
   127   65   66 1    
   128   65   69 1    
   129   65  131 1    
   130   66   67 am   BACKBONE|DICT|INTERRES
   131   66   68 2    
   132   67  132 1    
   133   67  133 1    
   134   69   70 1    
   135   69  134 1    
   136   69  135 1    
   137   70   71 1    
   138   71  136 1    
   139   71  137 1    
@<TRIPOS>SUBSTRUCTURE
     1 UNK         1 GROUP             0       ****    0 ROOT    
