@<TRIPOS>MOLECULE
3R137
137   139    1
SMALL
USER_CHARGES


@<TRIPOS>ATOM
      1 CA         26.3189   -0.1544    4.1958 C.3       0 UNK        -0.2020 
      2 C          26.6867    0.0829    2.7388 C.2       0 UNK         0.4855 
      3 O          26.7756    1.2337    2.3105 O.2       0 UNK        -0.5197 
      4 N          26.9044   -0.9966    1.9753 N.am      1 UNK        -0.4892 
      5 CA         27.2407   -0.9583    0.5458 C.3       1 UNK         0.0835 
      6 C6         27.7765   -2.3336    0.0692 C.3       12 UNK        -0.0855 
      7 S7         28.6480   -2.2385   -1.5276 S.3       12 UNK        -0.2931 
      8 C8         29.5118   -3.8387   -1.5574 C.3       12 UNK         0.0378 
      9 C9         30.2635   -4.0015   -2.8683 C.ar      12 UNK        -0.0802 
     10 C10        31.4463   -3.2871   -3.0820 C.ar      12 UNK        -0.0944 
     11 C11        32.1031   -3.3577   -4.3125 C.ar      12 UNK        -0.0787 
     12 C12        31.5930   -4.1795   -5.3197 C.ar      12 UNK        -0.0862 
     13 C13        30.4059   -4.8915   -5.1217 C.ar      12 UNK        -0.0733 
     14 C14        29.7505   -4.8108   -3.8884 C.ar      12 UNK        -0.0832 
     15 C15        29.7882   -5.6652   -6.2801 C.3       12 UNK         0.0240 
     16 S16        28.3865   -4.7743   -7.0497 S.3       12 UNK        -0.2522 
     17 C17        28.9322   -3.0327   -6.9569 C.3       12 UNK        -0.0967 
     18 CA         28.0815   -2.0279   -7.7700 C.3       5 UNK         0.0660 
     19 N          26.6439   -2.2226   -7.5685 N.am      5 UNK        -0.4015 
     20 C          25.6620   -1.4878   -8.1094 C.2       4 UNK         0.4946 
     21 O          25.8502   -0.5764   -8.9140 O.2       4 UNK        -0.5353 
     22 CA         24.2283   -1.7795   -7.6318 C.3       4 UNK         0.0277 
     23 CB         23.5102   -2.7020   -8.6291 C.3       4 UNK        -0.1981 
     24 N          24.1501   -2.3582   -6.2840 N.am      4 UNK        -0.4209 
     25 C          24.6107   -1.7771   -5.1671 C.2       3 UNK         0.4942 
     26 O          25.1884   -0.6864   -5.1446 O.2       3 UNK        -0.5208 
     27 CA         24.4654   -2.5895   -3.8780 C.3       3 UNK         0.0250 
     28 CB         25.6829   -3.5141   -3.6982 C.3       3 UNK        -0.1990 
     29 N          24.3924   -1.6766   -2.7412 N.am      3 UNK        -0.4232 
     30 C          23.4386   -1.6660   -1.8040 C.2       2 UNK         0.4993 
     31 O          22.4945   -2.4585   -1.7787 O.2       2 UNK        -0.5286 
     32 CA         23.5961   -0.6176   -0.6843 C.3       2 UNK         0.0209 
     33 CB         22.4058   -0.6030    0.2937 C.3       2 UNK        -0.1931 
     34 N          24.8273   -0.8536    0.0734 N.am      2 UNK        -0.4546 
     35 C          26.0534   -0.4830   -0.3217 C.2       1 UNK         0.5154 
     36 O          26.2581    0.1916   -1.3325 O.2       1 UNK        -0.5181 
     37 C          28.5353   -0.5998   -7.4049 C.2       5 UNK         0.5014 
     38 O          29.3340   -0.0114   -8.1344 O.2       5 UNK        -0.5248 
     39 N          28.0148   -0.0737   -6.2853 N.am      6 UNK        -0.4434 
     40 CA         28.3273    1.2616   -5.7796 C.3       6 UNK         0.0363 
     41 CB         27.9285    1.3577   -4.2984 C.3       6 UNK        -0.1936 
     42 C          27.6448    2.3615   -6.6051 C.2       6 UNK         0.5081 
     43 O          28.2497    3.4101   -6.8238 O.2       6 UNK        -0.5248 
     44 N          26.4200    2.0926   -7.0815 N.am      7 UNK        -0.4718 
     45 CA         25.6678    2.9753   -7.9787 C.3       7 UNK         0.0273 
     46 CB         24.2105    2.4962   -8.0763 C.3       7 UNK        -0.1935 
     47 C          26.3104    3.0729   -9.3732 C.2       7 UNK         0.5018 
     48 O          26.3816    4.1665   -9.9343 O.2       7 UNK        -0.5186 
     49 N          26.7962    1.9347   -9.8877 N.am      8 UNK        -0.4240 
     50 CA         27.5538    1.8319  -11.1374 C.3       8 UNK         0.0235 
     51 CB         27.5720    0.3597  -11.5826 C.3       8 UNK        -0.2000 
     52 C          28.9949    2.3671  -11.0343 C.2       8 UNK         0.4941 
     53 O          29.6114    2.6073  -12.0731 O.2       8 UNK        -0.5273 
     54 N          29.5096    2.5120   -9.8026 N.am      9 UNK        -0.4262 
     55 CA         30.8923    2.8481   -9.4398 C.3       9 UNK         0.0264 
     56 CB         31.2526    4.2833   -9.8780 C.3       9 UNK        -0.1955 
     57 C          31.8959    1.7880   -9.9369 C.2       9 UNK         0.5031 
     58 O          32.9771    2.1284  -10.4219 O.2       9 UNK        -0.5390 
     59 N          31.5132    0.5106   -9.8033 N.am      10 UNK        -0.4204 
     60 CA         32.2672   -0.6552  -10.2720 C.3       10 UNK         0.0237 
     61 CB         31.3307   -1.8747  -10.2937 C.3       10 UNK        -0.1985 
     62 C          33.5276   -0.9583   -9.4422 C.2       10 UNK         0.4970 
     63 O          34.3916   -1.6963   -9.9172 O.2       10 UNK        -0.4914 
     64 N          33.6092   -0.4019   -8.2273 N.am      11 UNK        -0.4285 
     65 CA         34.7300   -0.5708   -7.2891 C.3       11 UNK         0.1007 
     66 C          36.0501    0.1356   -7.7171 C.2       11 UNK         0.5703 
     67 N          36.0400    1.0317   -8.6980 N.am      11 UNK        -0.7361 
     68 O          37.1042   -0.1399   -7.1491 O.2       11 UNK        -0.4986 
     69 C69        34.3405   -0.1714   -5.8394 C.3       12 UNK        -0.0947 
     70 S70        32.7611   -0.8951   -5.2873 S.3       12 UNK        -0.2240 
     71 C71        33.3114   -2.4807   -4.5892 C.3       12 UNK         0.0194 
     72 H72        27.0503    0.3205    4.8493 H         1 UNK         0.0906 
     73 H73        25.3408    0.2754    4.4103 H         1 UNK         0.0906 
     74 H74        26.2840   -1.2156    4.4416 H         1 UNK         0.0906 
     75 H75        26.8289   -1.9161    2.3882 H         1 UNK         0.3140 
     76 H76        28.0383   -0.2214    0.4225 H         1 UNK         0.1085 
     77 H77        28.4831   -2.7254    0.8030 H         1 UNK         0.0836 
     78 H78        26.9736   -3.0703   -0.0029 H         1 UNK         0.0836 
     79 H79        30.2095   -3.8968   -0.7206 H         1 UNK         0.0731 
     80 H80        28.7898   -4.6458   -1.4229 H         1 UNK         0.0731 
     81 H81        31.8243   -2.6331   -2.3078 H         1 UNK         0.1312 
     82 H82        32.0867   -4.2121   -6.2816 H         1 UNK         0.1406 
     83 H83        28.8171   -5.3380   -3.7433 H         1 UNK         0.1631 
     84 H84        29.4437   -6.6397   -5.9313 H         1 UNK         0.0717 
     85 H85        30.5389   -5.8644   -7.0465 H         1 UNK         0.0717 
     86 H86        28.9323   -2.7564   -5.8995 H         1 UNK         0.0934 
     87 H87        29.9717   -2.9785   -7.2844 H         1 UNK         0.0934 
     88 H88        28.2800   -2.1809   -8.8327 H         1 UNK         0.0739 
     89 H89        26.3894   -2.9734   -6.9444 H         1 UNK         0.3093 
     90 H90        23.6988   -0.8249   -7.6065 H         1 UNK         0.0818 
     91 H91        22.4618   -2.8371   -8.3627 H         1 UNK         0.0819 
     92 H92        23.5338   -2.2810   -9.6356 H         1 UNK         0.0819 
     93 H93        23.9760   -3.6871   -8.6776 H         1 UNK         0.0819 
     94 H94        23.7027   -3.2611   -6.2097 H         1 UNK         0.3041 
     95 H95        23.5584   -3.1941   -3.9443 H         1 UNK         0.0784 
     96 H96        25.7476   -4.2454   -4.5048 H         1 UNK         0.0793 
     97 H97        26.6187   -2.9532   -3.6913 H         1 UNK         0.0793 
     98 H98        25.6234   -4.0697   -2.7621 H         1 UNK         0.0793 
     99 H99        25.1156   -0.9645   -2.7039 H         1 UNK         0.3024 
    100 H100       23.6473    0.3640   -1.1619 H         1 UNK         0.1171 
    101 H101       21.4706   -0.4077   -0.2328 H         1 UNK         0.0786 
    102 H102       22.5211    0.1777    1.0459 H         1 UNK         0.0786 
    103 H103       22.2954   -1.5557    0.8134 H         1 UNK         0.0786 
    104 H104       24.7458   -1.4144    0.9090 H         1 UNK         0.2977 
    105 H105       27.3079   -0.5917   -5.7771 H         1 UNK         0.3127 
    106 H106       29.4073    1.4105   -5.8505 H         1 UNK         0.0770 
    107 H107       28.1958    2.3311   -3.8855 H         1 UNK         0.0814 
    108 H108       28.4361    0.6013   -3.6988 H         1 UNK         0.0814 
    109 H109       26.8549    1.2284   -4.1558 H         1 UNK         0.0814 
    110 H110       26.0012    1.2009   -6.8540 H         1 UNK         0.2983 
    111 H111       25.6688    3.9772   -7.5431 H         1 UNK         0.0947 
    112 H112       23.6202    3.1748   -8.6937 H         1 UNK         0.0806 
    113 H113       23.7378    2.4577   -7.0948 H         1 UNK         0.0806 
    114 H114       24.1370    1.5050   -8.5240 H         1 UNK         0.0806 
    115 H115       26.6118    1.0622   -9.3953 H         1 UNK         0.3000 
    116 H116       27.0390    2.4183  -11.9014 H         1 UNK         0.0850 
    117 H117       28.0998    0.2413  -12.5299 H         1 UNK         0.0810 
    118 H118       26.5616   -0.0246  -11.7236 H         1 UNK         0.0810 
    119 H119       28.0705   -0.2751  -10.8485 H         1 UNK         0.0810 
    120 H120       28.9136    2.2574   -9.0261 H         1 UNK         0.3040 
    121 H121       30.9331    2.8173   -8.3498 H         1 UNK         0.0766 
    122 H122       32.2305    4.5742   -9.4925 H         1 UNK         0.0812 
    123 H123       30.5279    5.0053   -9.5014 H         1 UNK         0.0812 
    124 H124       31.2909    4.3799  -10.9633 H         1 UNK         0.0812 
    125 H125       30.6341    0.3225   -9.3196 H         1 UNK         0.3205 
    126 H126       32.5928   -0.4553  -11.2950 H         1 UNK         0.0754 
    127 H127       31.8395   -2.7527  -10.6942 H         1 UNK         0.0769 
    128 H128       30.4563   -1.6938  -10.9193 H         1 UNK         0.0769 
    129 H129       30.9812   -2.1286   -9.2932 H         1 UNK         0.0769 
    130 H130       32.8467    0.1753   -7.9075 H         1 UNK         0.2981 
    131 H131       34.9615   -1.6374   -7.2739 H         1 UNK         0.0541 
    132 H132       35.1805    1.2635   -9.1732 H         1 UNK         0.3459 
    133 H133       36.9021    1.4788   -8.9669 H         1 UNK         0.3459 
    134 H134       35.1245   -0.4577   -5.1358 H         1 UNK         0.0612 
    135 H135       34.2443    0.9131   -5.7615 H         1 UNK         0.0612 
    136 H136       33.8778   -2.3031   -3.6738 H         1 UNK         0.0624 
    137 H137       33.9855   -2.9783   -5.2881 H         1 UNK         0.0624 
@<TRIPOS>BOND
     1    1    2 1    
     2    1   72 1    
     3    1   73 1    
     4    1   74 1    
     5    2    3 2    
     6    2    4 am   BACKBONE|DICT|INTERRES
     7    4    5 1    
     8    4   75 1    
     9    5    6 1    
    10    5   35 1    
    11    5   76 1    
    12    6    7 1    
    13    6   77 1    
    14    6   78 1    
    15    7    8 1    
    16    8    9 1    
    17    8   79 1    
    18    8   80 1    
    19    9   10 ar   
    20    9   14 ar   
    21   10   11 ar   
    22   10   81 1    
    23   11   12 ar   
    24   11   71 1    
    25   12   13 ar   
    26   12   82 1    
    27   13   14 ar   
    28   13   15 1    
    29   14   83 1    
    30   15   16 1    
    31   15   84 1    
    32   15   85 1    
    33   16   17 1    
    34   17   18 1    
    35   17   86 1    
    36   17   87 1    
    37   18   19 1    
    38   18   37 1    
    39   18   88 1    
    40   19   20 am   BACKBONE|DICT|INTERRES
    41   19   89 1    
    42   20   21 2    
    43   20   22 1    
    44   22   23 1    
    45   22   24 1    
    46   22   90 1    
    47   23   91 1    
    48   23   92 1    
    49   23   93 1    
    50   24   25 am   BACKBONE|DICT|INTERRES
    51   24   94 1    
    52   25   26 2    
    53   25   27 1    
    54   27   28 1    
    55   27   29 1    
    56   27   95 1    
    57   28   96 1    
    58   28   97 1    
    59   28   98 1    
    60   29   30 am   BACKBONE|DICT|INTERRES
    61   29   99 1    
    62   30   31 2    
    63   30   32 1    
    64   32   33 1    
    65   32   34 1    
    66   32  100 1    
    67   33  101 1    
    68   33  102 1    
    69   33  103 1    
    70   34   35 am   BACKBONE|DICT|INTERRES
    71   34  104 1    
    72   35   36 2    
    73   37   38 2    
    74   37   39 am   BACKBONE|DICT|INTERRES
    75   39   40 1    
    76   39  105 1    
    77   40   41 1    
    78   40   42 1    
    79   40  106 1    
    80   41  107 1    
    81   41  108 1    
    82   41  109 1    
    83   42   43 2    
    84   42   44 am   BACKBONE|DICT|INTERRES
    85   44   45 1    
    86   44  110 1    
    87   45   46 1    
    88   45   47 1    
    89   45  111 1    
    90   46  112 1    
    91   46  113 1    
    92   46  114 1    
    93   47   48 2    
    94   47   49 am   BACKBONE|DICT|INTERRES
    95   49   50 1    
    96   49  115 1    
    97   50   51 1    
    98   50   52 1    
    99   50  116 1    
   100   51  117 1    
   101   51  118 1    
   102   51  119 1    
   103   52   53 2    
   104   52   54 am   BACKBONE|DICT|INTERRES
   105   54   55 1    
   106   54  120 1    
   107   55   56 1    
   108   55   57 1    
   109   55  121 1    
   110   56  122 1    
   111   56  123 1    
   112   56  124 1    
   113   57   58 2    
   114   57   59 am   BACKBONE|DICT|INTERRES
   115   59   60 1    
   116   59  125 1    
   117   60   61 1    
   118   60   62 1    
   119   60  126 1    
   120   61  127 1    
   121   61  128 1    
   122   61  129 1    
   123   62   63 2    
   124   62   64 am   BACKBONE|DICT|INTERRES
   125   64   65 1    
   126   64  130 1    
   127   65   66 1    
   128   65   69 1    
   129   65  131 1    
   130   66   67 am   BACKBONE|DICT|INTERRES
   131   66   68 2    
   132   67  132 1    
   133   67  133 1    
   134   69   70 1    
   135   69  134 1    
   136   69  135 1    
   137   70   71 1    
   138   71  136 1    
   139   71  137 1    
@<TRIPOS>SUBSTRUCTURE
     1 UNK         1 GROUP             0       ****    0 ROOT    
