@<TRIPOS>MOLECULE
3R137
137   139    1
SMALL
USER_CHARGES


@<TRIPOS>ATOM
      1 CA         28.8834   -6.1644   -2.6693 C.3       0 UNK        -0.2020 
      2 C          28.3130   -5.5013   -1.4252 C.2       0 UNK         0.4855 
      3 O          28.1108   -6.1738   -0.4141 O.2       0 UNK        -0.5197 
      4 N          28.0407   -4.1920   -1.4998 N.am      1 UNK        -0.4892 
      5 CA         27.4886   -3.3825   -0.4011 C.3       1 UNK         0.0835 
      6 C6         28.3546   -2.1312   -0.0867 C.3       12 UNK        -0.0855 
      7 S7         30.0380   -2.5852    0.4656 S.3       12 UNK        -0.2931 
      8 C8         31.0626   -1.2290   -0.2143 C.3       12 UNK         0.0378 
      9 C9         31.0631   -1.0958   -1.7387 C.ar      12 UNK        -0.0802 
     10 C10        31.4541    0.1201   -2.3099 C.ar      12 UNK        -0.0944 
     11 C11        31.4415    0.3060   -3.6963 C.ar      12 UNK        -0.0787 
     12 C12        30.9791   -0.7344   -4.5120 C.ar      12 UNK        -0.0862 
     13 C13        30.6383   -1.9724   -3.9634 C.ar      12 UNK        -0.0733 
     14 C14        30.6996   -2.1518   -2.5816 C.ar      12 UNK        -0.0832 
     15 C15        30.2276   -3.1269   -4.8596 C.3       12 UNK         0.0240 
     16 S16        28.4261   -3.1445   -5.1278 S.3       12 UNK        -0.2522 
     17 C17        28.3186   -3.0673   -6.9528 C.3       12 UNK        -0.0967 
     18 CA         27.5830   -1.8194   -7.4939 C.3       5 UNK         0.0660 
     19 N          26.1839   -1.7838   -7.0594 N.am      5 UNK        -0.4015 
     20 C          25.2296   -1.0623   -7.6600 C.2       4 UNK         0.4946 
     21 O          25.4317   -0.3446   -8.6386 O.2       4 UNK        -0.5353 
     22 CA         23.8238   -1.1161   -7.0425 C.3       4 UNK         0.0277 
     23 CB         23.0793   -2.3802   -7.5000 C.3       4 UNK        -0.1981 
     24 N          23.8039   -1.0386   -5.5782 N.am      4 UNK        -0.4209 
     25 C          24.3277   -0.0561   -4.8361 C.2       3 UNK         0.4942 
     26 O          25.0032    0.8573   -5.3071 O.2       3 UNK        -0.5208 
     27 CA         24.0591   -0.0717   -3.3199 C.3       3 UNK         0.0250 
     28 CB         22.6828    0.5474   -3.0116 C.3       3 UNK        -0.1990 
     29 N          24.2168   -1.3686   -2.6437 N.am      3 UNK        -0.4232 
     30 C          23.5474   -2.5169   -2.8168 C.2       2 UNK         0.4993 
     31 O          22.6746   -2.6723   -3.6731 O.2       2 UNK        -0.5286 
     32 CA         23.9148   -3.6914   -1.8831 C.3       2 UNK         0.0209 
     33 CB         23.4552   -5.0497   -2.4474 C.3       2 UNK        -0.1931 
     34 N          25.3441   -3.7838   -1.5570 N.am      2 UNK        -0.4546 
     35 C          26.0118   -3.0227   -0.6771 C.2       1 UNK         0.5154 
     36 O          25.4951   -2.0612   -0.1064 O.2       1 UNK        -0.5181 
     37 C          28.3412   -0.5052   -7.2015 C.2       5 UNK         0.5014 
     38 O          29.2974   -0.1913   -7.9146 O.2       5 UNK        -0.5248 
     39 N          27.8989    0.2426   -6.1795 N.am      6 UNK        -0.4434 
     40 CA         28.4128    1.5678   -5.8386 C.3       6 UNK         0.0363 
     41 CB         28.1400    1.8732   -4.3567 C.3       6 UNK        -0.1936 
     42 C          27.8096    2.6448   -6.7500 C.2       6 UNK         0.5081 
     43 O          28.5358    3.5344   -7.1887 O.2       6 UNK        -0.5248 
     44 N          26.5125    2.5194   -7.0672 N.am      7 UNK        -0.4718 
     45 CA         25.7999    3.3568   -8.0376 C.3       7 UNK         0.0273 
     46 CB         24.2955    3.0483   -7.9785 C.3       7 UNK        -0.1935 
     47 C          26.3414    3.1913   -9.4687 C.2       7 UNK         0.5018 
     48 O          26.4922    4.1862  -10.1783 O.2       7 UNK        -0.5186 
     49 N          26.6712    1.9473   -9.8465 N.am      8 UNK        -0.4240 
     50 CA         27.3754    1.6041  -11.0866 C.3       8 UNK         0.0235 
     51 CB         27.2337    0.0947  -11.3422 C.3       8 UNK        -0.2000 
     52 C          28.8653    2.0017  -11.0813 C.2       8 UNK         0.4941 
     53 O          29.4771    2.0179  -12.1500 O.2       8 UNK        -0.5273 
     54 N          29.4154    2.3019   -9.8947 N.am      9 UNK        -0.4262 
     55 CA         30.8002    2.6876   -9.6108 C.3       9 UNK         0.0264 
     56 CB         31.1149    4.0742  -10.2112 C.3       9 UNK        -0.1955 
     57 C          31.8186    1.6042  -10.0101 C.2       9 UNK         0.5031 
     58 O          32.8359    1.9171  -10.6330 O.2       9 UNK        -0.5390 
     59 N          31.5247    0.3477   -9.6454 N.am      10 UNK        -0.4204 
     60 CA         32.4292   -0.7905   -9.8137 C.3       10 UNK         0.0237 
     61 CB         31.6257   -2.1042   -9.7709 C.3       10 UNK        -0.1985 
     62 C          33.5337   -0.7321   -8.7465 C.2       10 UNK         0.4970 
     63 O          34.6685   -0.3725   -9.0609 O.2       10 UNK        -0.4914 
     64 N          33.1514   -1.0412   -7.5009 N.am      11 UNK        -0.4285 
     65 CA         33.9305   -0.8337   -6.2657 C.3       11 UNK         0.1007 
     66 C          35.2803   -1.6094   -6.1763 C.2       11 UNK         0.5703 
     67 N          35.4701   -2.6834   -6.9334 N.am      11 UNK        -0.7361 
     68 O          36.1557   -1.2593   -5.3879 O.2       11 UNK        -0.4986 
     69 C69        34.0617    0.6737   -5.8873 C.3       12 UNK        -0.0947 
     70 S70        32.4925    1.6115   -5.9970 S.3       12 UNK        -0.2240 
     71 C71        31.9126    1.6475   -4.2634 C.3       12 UNK         0.0194 
     72 H72        28.5622   -7.2042   -2.7267 H         1 UNK         0.0906 
     73 H73        29.9724   -6.1462   -2.6396 H         1 UNK         0.0906 
     74 H74        28.5524   -5.6659   -3.5790 H         1 UNK         0.0906 
     75 H75        28.1986   -3.6975   -2.3678 H         1 UNK         0.3140 
     76 H76        27.4576   -3.9773    0.5144 H         1 UNK         0.1085 
     77 H77        27.9059   -1.5384    0.7128 H         1 UNK         0.0836 
     78 H78        28.4052   -1.4751   -0.9571 H         1 UNK         0.0836 
     79 H79        30.7237   -0.2932    0.2332 H         1 UNK         0.0731 
     80 H80        32.0910   -1.3755    0.1180 H         1 UNK         0.0731 
     81 H81        31.7718    0.9308   -1.6680 H         1 UNK         0.1312 
     82 H82        30.9137   -0.5978   -5.5810 H         1 UNK         0.1406 
     83 H83        30.4499   -3.1163   -2.1659 H         1 UNK         0.1631 
     84 H84        30.5236   -4.0751   -4.4086 H         1 UNK         0.0717 
     85 H85        30.7760   -3.0670   -5.7995 H         1 UNK         0.0717 
     86 H86        29.3066   -3.1406   -7.4072 H         1 UNK         0.0934 
     87 H87        27.7949   -3.9648   -7.2861 H         1 UNK         0.0934 
     88 H88        27.5708   -1.9174   -8.5815 H         1 UNK         0.0739 
     89 H89        25.9463   -2.3393   -6.2503 H         1 UNK         0.3093 
     90 H90        23.2760   -0.2482   -7.4148 H         1 UNK         0.0818 
     91 H91        22.0415   -2.3706   -7.1660 H         1 UNK         0.0819 
     92 H92        23.0672   -2.4553   -8.5884 H         1 UNK         0.0819 
     93 H93        23.5456   -3.2875   -7.1139 H         1 UNK         0.0819 
     94 H94        23.2669   -1.7466   -5.0779 H         1 UNK         0.3041 
     95 H95        24.8130    0.5784   -2.8725 H         1 UNK         0.0784 
     96 H96        22.5970    1.5440   -3.4473 H         1 UNK         0.0793 
     97 H97        21.8658   -0.0532   -3.4130 H         1 UNK         0.0793 
     98 H98        22.5266    0.6498   -1.9377 H         1 UNK         0.0793 
     99 H99        24.8856   -1.3711   -1.8801 H         1 UNK         0.3024 
    100 H100       23.3674   -3.5189   -0.9534 H         1 UNK         0.1171 
    101 H101       22.3774   -5.0634   -2.6159 H         1 UNK         0.0786 
    102 H102       23.6787   -5.8635   -1.7572 H         1 UNK         0.0786 
    103 H103       23.9376   -5.2737   -3.3997 H         1 UNK         0.0786 
    104 H104       25.8570   -4.5317   -2.0014 H         1 UNK         0.2977 
    105 H105       27.0795   -0.0638   -5.6737 H         1 UNK         0.3127 
    106 H106       29.4929    1.5713   -5.9920 H         1 UNK         0.0770 
    107 H107       27.0741    1.9309   -4.1377 H         1 UNK         0.0814 
    108 H108       28.5792    2.8301   -4.0728 H         1 UNK         0.0814 
    109 H109       28.5739    1.1117   -3.7085 H         1 UNK         0.0814 
    110 H110       25.9687    1.7985   -6.5974 H         1 UNK         0.2983 
    111 H111       25.9475    4.3993   -7.7472 H         1 UNK         0.0947 
    112 H112       23.7383    3.6936   -8.6589 H         1 UNK         0.0806 
    113 H113       23.8968    3.2100   -6.9767 H         1 UNK         0.0806 
    114 H114       24.0826    2.0168   -8.2593 H         1 UNK         0.0806 
    115 H115       26.4105    1.1716   -9.2411 H         1 UNK         0.3000 
    116 H116       26.8969    2.1392  -11.9095 H         1 UNK         0.0850 
    117 H117       27.6965   -0.1877  -12.2887 H         1 UNK         0.0810 
    118 H118       26.1864   -0.2041  -11.3915 H         1 UNK         0.0810 
    119 H119       27.7134   -0.4908  -10.5574 H         1 UNK         0.0810 
    120 H120       28.8148    2.2617   -9.0821 H         1 UNK         0.3040 
    121 H121       30.8716    2.7785   -8.5258 H         1 UNK         0.0766 
    122 H122       31.1009    4.0570  -11.3013 H         1 UNK         0.0812 
    123 H123       30.3945    4.8210   -9.8770 H         1 UNK         0.0812 
    124 H124       32.1032    4.4175   -9.9033 H         1 UNK         0.0812 
    125 H125       30.6771    0.1878   -9.1019 H         1 UNK         0.3205 
    126 H126       32.9069   -0.7228  -10.7936 H         1 UNK         0.0754 
    127 H127       30.9301   -2.1614  -10.6085 H         1 UNK         0.0769 
    128 H128       31.0429   -2.2063   -8.8559 H         1 UNK         0.0769 
    129 H129       32.2862   -2.9696   -9.8411 H         1 UNK         0.0769 
    130 H130       32.1972   -1.3345   -7.3654 H         1 UNK         0.2981 
    131 H131       33.3424   -1.3037   -5.4811 H         1 UNK         0.0541 
    132 H132       34.7614   -2.9820   -7.5836 H         1 UNK         0.3459 
    133 H133       36.3398   -3.1879   -6.8653 H         1 UNK         0.3459 
    134 H134       34.7789    1.1603   -6.5502 H         1 UNK         0.0612 
    135 H135       34.4626    0.7804   -4.8780 H         1 UNK         0.0612 
    136 H136       32.7157    2.0506   -3.6445 H         1 UNK         0.0624 
    137 H137       31.0890    2.3580   -4.1942 H         1 UNK         0.0624 
@<TRIPOS>BOND
     1    1    2 1    
     2    1   72 1    
     3    1   73 1    
     4    1   74 1    
     5    2    3 2    
     6    2    4 am   BACKBONE|DICT|INTERRES
     7    4    5 1    
     8    4   75 1    
     9    5    6 1    
    10    5   35 1    
    11    5   76 1    
    12    6    7 1    
    13    6   77 1    
    14    6   78 1    
    15    7    8 1    
    16    8    9 1    
    17    8   79 1    
    18    8   80 1    
    19    9   10 ar   
    20    9   14 ar   
    21   10   11 ar   
    22   10   81 1    
    23   11   12 ar   
    24   11   71 1    
    25   12   13 ar   
    26   12   82 1    
    27   13   14 ar   
    28   13   15 1    
    29   14   83 1    
    30   15   16 1    
    31   15   84 1    
    32   15   85 1    
    33   16   17 1    
    34   17   18 1    
    35   17   86 1    
    36   17   87 1    
    37   18   19 1    
    38   18   37 1    
    39   18   88 1    
    40   19   20 am   BACKBONE|DICT|INTERRES
    41   19   89 1    
    42   20   21 2    
    43   20   22 1    
    44   22   23 1    
    45   22   24 1    
    46   22   90 1    
    47   23   91 1    
    48   23   92 1    
    49   23   93 1    
    50   24   25 am   BACKBONE|DICT|INTERRES
    51   24   94 1    
    52   25   26 2    
    53   25   27 1    
    54   27   28 1    
    55   27   29 1    
    56   27   95 1    
    57   28   96 1    
    58   28   97 1    
    59   28   98 1    
    60   29   30 am   BACKBONE|DICT|INTERRES
    61   29   99 1    
    62   30   31 2    
    63   30   32 1    
    64   32   33 1    
    65   32   34 1    
    66   32  100 1    
    67   33  101 1    
    68   33  102 1    
    69   33  103 1    
    70   34   35 am   BACKBONE|DICT|INTERRES
    71   34  104 1    
    72   35   36 2    
    73   37   38 2    
    74   37   39 am   BACKBONE|DICT|INTERRES
    75   39   40 1    
    76   39  105 1    
    77   40   41 1    
    78   40   42 1    
    79   40  106 1    
    80   41  107 1    
    81   41  108 1    
    82   41  109 1    
    83   42   43 2    
    84   42   44 am   BACKBONE|DICT|INTERRES
    85   44   45 1    
    86   44  110 1    
    87   45   46 1    
    88   45   47 1    
    89   45  111 1    
    90   46  112 1    
    91   46  113 1    
    92   46  114 1    
    93   47   48 2    
    94   47   49 am   BACKBONE|DICT|INTERRES
    95   49   50 1    
    96   49  115 1    
    97   50   51 1    
    98   50   52 1    
    99   50  116 1    
   100   51  117 1    
   101   51  118 1    
   102   51  119 1    
   103   52   53 2    
   104   52   54 am   BACKBONE|DICT|INTERRES
   105   54   55 1    
   106   54  120 1    
   107   55   56 1    
   108   55   57 1    
   109   55  121 1    
   110   56  122 1    
   111   56  123 1    
   112   56  124 1    
   113   57   58 2    
   114   57   59 am   BACKBONE|DICT|INTERRES
   115   59   60 1    
   116   59  125 1    
   117   60   61 1    
   118   60   62 1    
   119   60  126 1    
   120   61  127 1    
   121   61  128 1    
   122   61  129 1    
   123   62   63 2    
   124   62   64 am   BACKBONE|DICT|INTERRES
   125   64   65 1    
   126   64  130 1    
   127   65   66 1    
   128   65   69 1    
   129   65  131 1    
   130   66   67 am   BACKBONE|DICT|INTERRES
   131   66   68 2    
   132   67  132 1    
   133   67  133 1    
   134   69   70 1    
   135   69  134 1    
   136   69  135 1    
   137   70   71 1    
   138   71  136 1    
   139   71  137 1    
@<TRIPOS>SUBSTRUCTURE
     1 UNK         1 GROUP             0       ****    0 ROOT    
