@<TRIPOS>MOLECULE
3R137
137   139    1
SMALL
USER_CHARGES


@<TRIPOS>ATOM
      1 CA         26.6894   -5.2226   -6.8504 C.3       0 UNK        -0.2020 
      2 C          25.9910   -5.5641   -5.5427 C.2       0 UNK         0.4855 
      3 O          24.9395   -6.2046   -5.5541 O.2       0 UNK        -0.5197 
      4 N          26.5577   -5.1295   -4.4112 N.am      1 UNK        -0.4892 
      5 CA         26.0479   -5.3290   -3.0490 C.3       1 UNK         0.0835 
      6 C6         27.1862   -5.2102   -1.9975 C.3       12 UNK        -0.0855 
      7 S7         28.2329   -3.7209   -2.1906 S.3       12 UNK        -0.2931 
      8 C8         29.9015   -4.4439   -2.2238 C.3       12 UNK         0.0378 
      9 C9         30.9520   -3.3621   -2.4194 C.ar      12 UNK        -0.0802 
     10 C10        31.6926   -3.2940   -3.6022 C.ar      12 UNK        -0.0944 
     11 C11        32.6398   -2.2820   -3.7891 C.ar      12 UNK        -0.0787 
     12 C12        32.8404   -1.3283   -2.7863 C.ar      12 UNK        -0.0862 
     13 C13        32.1057   -1.3893   -1.5989 C.ar      12 UNK        -0.0733 
     14 C14        31.1757   -2.4165   -1.4158 C.ar      12 UNK        -0.0832 
     15 C15        32.3052   -0.3505   -0.5074 C.3       12 UNK         0.0240 
     16 S16        30.8037    0.6476   -0.2615 S.3       12 UNK        -0.2522 
     17 C17        30.8726    1.8136   -1.6653 C.3       12 UNK        -0.0967 
     18 CA         30.0510    1.3960   -2.9220 C.3       5 UNK         0.0660 
     19 N          28.7069    0.9228   -2.5657 N.am      5 UNK        -0.4015 
     20 C          27.9166    0.1421   -3.3146 C.2       4 UNK         0.4946 
     21 O          28.2407   -0.2689   -4.4313 O.2       4 UNK        -0.5353 
     22 CA         26.5543   -0.2474   -2.6993 C.3       4 UNK         0.0277 
     23 CB         25.8736    0.9234   -1.9535 C.3       4 UNK        -0.1981 
     24 N          25.6269   -0.8517   -3.6659 N.am      4 UNK        -0.4209 
     25 C          25.0852   -0.2776   -4.7539 C.2       3 UNK         0.4942 
     26 O          25.2670    0.8965   -5.0775 O.2       3 UNK        -0.5208 
     27 CA         24.1727   -1.1471   -5.6439 C.3       3 UNK         0.0250 
     28 CB         24.8959   -1.5491   -6.9390 C.3       3 UNK        -0.1990 
     29 N          23.6917   -2.3641   -4.9915 N.am      3 UNK        -0.4232 
     30 C          22.7429   -2.4245   -4.0480 C.2       2 UNK         0.4993 
     31 O          22.0827   -1.4565   -3.6703 O.2       2 UNK        -0.5286 
     32 CA         22.5170   -3.8038   -3.4001 C.3       2 UNK         0.0209 
     33 CB         21.3541   -4.5399   -4.0845 C.3       2 UNK        -0.1931 
     34 N          23.7161   -4.6524   -3.4345 N.am      2 UNK        -0.4546 
     35 C          24.8476   -4.3972   -2.7629 C.2       1 UNK         0.5154 
     36 O          24.9670   -3.4355   -2.0024 O.2       1 UNK        -0.5181 
     37 C          29.9768    2.5525   -3.9520 C.2       5 UNK         0.5014 
     38 O          30.4720    3.6475   -3.6754 O.2       5 UNK        -0.5248 
     39 N          29.3104    2.3261   -5.0896 N.am      6 UNK        -0.4434 
     40 CA         28.9561    3.3537   -6.0674 C.3       6 UNK         0.0363 
     41 CB         27.4677    3.7028   -5.8867 C.3       6 UNK        -0.1936 
     42 C          29.2287    2.8827   -7.4983 C.2       6 UNK         0.5081 
     43 O          29.4928    1.7009   -7.7363 O.2       6 UNK        -0.5248 
     44 N          29.1156    3.8246   -8.4453 N.am      7 UNK        -0.4718 
     45 CA         29.2861    3.6210   -9.8892 C.3       7 UNK         0.0273 
     46 CB         29.1353    4.9675  -10.6136 C.3       7 UNK        -0.1935 
     47 C          28.3375    2.5737  -10.4986 C.2       7 UNK         0.5018 
     48 O          28.7064    1.9390  -11.4852 O.2       7 UNK        -0.5186 
     49 N          27.1758    2.3537   -9.8667 N.am      8 UNK        -0.4240 
     50 CA         26.2327    1.2767  -10.1847 C.3       8 UNK         0.0235 
     51 CB         24.9621    1.4549   -9.3373 C.3       8 UNK        -0.2000 
     52 C          26.8199   -0.1394  -10.0068 C.2       8 UNK         0.4941 
     53 O          26.3932   -1.0540  -10.7116 O.2       8 UNK        -0.5273 
     54 N          27.7987   -0.2904   -9.1023 N.am      9 UNK        -0.4262 
     55 CA         28.5849   -1.5120   -8.9064 C.3       9 UNK         0.0264 
     56 CB         28.7972   -1.7178   -7.3957 C.3       9 UNK        -0.1955 
     57 C          29.9501   -1.4441   -9.6208 C.2       9 UNK         0.5031 
     58 O          30.7209   -2.3983   -9.5150 O.2       9 UNK        -0.5390 
     59 N          30.2411   -0.3205  -10.2983 N.am      10 UNK        -0.4204 
     60 CA         31.5442    0.0991  -10.8317 C.3       10 UNK         0.0237 
     61 CB         32.0389   -0.8576  -11.9379 C.3       10 UNK        -0.1985 
     62 C          32.5924    0.3454   -9.7245 C.2       10 UNK         0.4970 
     63 O          33.7871    0.1626   -9.9654 O.2       10 UNK        -0.4914 
     64 N          32.1279    0.7652   -8.5402 N.am      11 UNK        -0.4285 
     65 CA         32.9319    0.9825   -7.3266 C.3       11 UNK         0.1007 
     66 C          33.1132    2.4859   -6.9698 C.2       11 UNK         0.5703 
     67 N          32.7073    3.4257   -7.8160 N.am      11 UNK        -0.7361 
     68 O          33.6569    2.8105   -5.9172 O.2       11 UNK        -0.4986 
     69 C69        32.3582    0.1673   -6.1368 C.3       12 UNK        -0.0947 
     70 S70        32.4239   -1.6271   -6.4592 S.3       12 UNK        -0.2240 
     71 C71        33.4413   -2.2272   -5.0796 C.3       12 UNK         0.0194 
     72 H72        27.5501   -4.5722   -6.6960 H         1 UNK         0.0906 
     73 H73        27.0356   -6.1337   -7.3375 H         1 UNK         0.0906 
     74 H74        25.9998   -4.7179   -7.5264 H         1 UNK         0.0906 
     75 H75        27.4073   -4.5826   -4.4551 H         1 UNK         0.3140 
     76 H76        25.6608   -6.3485   -2.9790 H         1 UNK         0.1085 
     77 H77        27.8194   -6.0960   -2.0665 H         1 UNK         0.0836 
     78 H78        26.7828   -5.2258   -0.9830 H         1 UNK         0.0836 
     79 H79        29.9585   -5.1874   -3.0205 H         1 UNK         0.0731 
     80 H80        30.0903   -4.9704   -1.2871 H         1 UNK         0.0731 
     81 H81        31.5272   -4.0205   -4.3861 H         1 UNK         0.1312 
     82 H82        33.5653   -0.5390   -2.9315 H         1 UNK         0.1406 
     83 H83        30.5999   -2.4616   -0.5010 H         1 UNK         0.1631 
     84 H84        33.1537    0.3003   -0.7242 H         1 UNK         0.0717 
     85 H85        32.5430   -0.8617    0.4266 H         1 UNK         0.0717 
     86 H86        30.5094    2.7661   -1.2739 H         1 UNK         0.0934 
     87 H87        31.9148    1.9874   -1.9396 H         1 UNK         0.0934 
     88 H88        30.5784    0.5699   -3.4040 H         1 UNK         0.0739 
     89 H89        28.3743    1.2155   -1.6594 H         1 UNK         0.3093 
     90 H90        26.7639   -1.0297   -1.9683 H         1 UNK         0.0818 
     91 H91        26.4386    1.2209   -1.0699 H         1 UNK         0.0819 
     92 H92        25.7694    1.8034   -2.5896 H         1 UNK         0.0819 
     93 H93        24.8777    0.6438   -1.6091 H         1 UNK         0.0819 
     94 H94        25.4013   -1.8196   -3.4768 H         1 UNK         0.3041 
     95 H95        23.3101   -0.5324   -5.9105 H         1 UNK         0.0784 
     96 H96        25.3968   -0.6954   -7.3928 H         1 UNK         0.0793 
     97 H97        25.6548   -2.3082   -6.7553 H         1 UNK         0.0793 
     98 H98        24.1982   -1.9461   -7.6765 H         1 UNK         0.0793 
     99 H99        24.1550   -3.2250   -5.2408 H         1 UNK         0.3024 
    100 H100       22.2519   -3.6315   -2.3543 H         1 UNK         0.1171 
    101 H101       21.5728   -4.7572   -5.1308 H         1 UNK         0.0786 
    102 H102       21.1330   -5.4832   -3.5846 H         1 UNK         0.0786 
    103 H103       20.4432   -3.9399   -4.0588 H         1 UNK         0.0786 
    104 H104       23.7270   -5.4208   -4.0985 H         1 UNK         0.2977 
    105 H105       28.9493    1.3904   -5.2639 H         1 UNK         0.3127 
    106 H106       29.5555    4.2525   -5.9083 H         1 UNK         0.0770 
    107 H107       27.1601    4.5126   -6.5489 H         1 UNK         0.0814 
    108 H108       27.2592    4.0281   -4.8673 H         1 UNK         0.0814 
    109 H109       26.8270    2.8455   -6.0970 H         1 UNK         0.0814 
    110 H110       28.8955    4.7673   -8.1556 H         1 UNK         0.2983 
    111 H111       30.3036    3.2601  -10.0502 H         1 UNK         0.0947 
    112 H112       29.2816    4.8515  -11.6887 H         1 UNK         0.0806 
    113 H113       29.8730    5.6910  -10.2661 H         1 UNK         0.0806 
    114 H114       28.1444    5.3984  -10.4646 H         1 UNK         0.0806 
    115 H115       26.9576    2.9293   -9.0668 H         1 UNK         0.3000 
    116 H116       25.9582    1.3782  -11.2369 H         1 UNK         0.0850 
    117 H117       25.1853    1.4772   -8.2699 H         1 UNK         0.0810 
    118 H118       24.2569    0.6402   -9.5089 H         1 UNK         0.0810 
    119 H119       24.4478    2.3828   -9.5884 H         1 UNK         0.0810 
    120 H120       28.1098    0.5151   -8.5672 H         1 UNK         0.3040 
    121 H121       28.0464   -2.3766   -9.2993 H         1 UNK         0.0766 
    122 H122       27.8556   -1.7513   -6.8522 H         1 UNK         0.0812 
    123 H123       29.3940   -0.9155   -6.9606 H         1 UNK         0.0812 
    124 H124       29.3217   -2.6525   -7.1941 H         1 UNK         0.0812 
    125 H125       29.5031    0.3657  -10.4053 H         1 UNK         0.3205 
    126 H126       31.3755    1.0701  -11.2989 H         1 UNK         0.0754 
    127 H127       32.9158   -0.4504  -12.4427 H         1 UNK         0.0769 
    128 H128       31.2732   -1.0145  -12.6976 H         1 UNK         0.0769 
    129 H129       32.3206   -1.8319  -11.5377 H         1 UNK         0.0769 
    130 H130       31.1319    0.9213   -8.4182 H         1 UNK         0.2981 
    131 H131       33.9471    0.6219   -7.4997 H         1 UNK         0.0541 
    132 H132       32.2980    3.1740   -8.6993 H         1 UNK         0.3459 
    133 H133       32.8478    4.3946   -7.5782 H         1 UNK         0.3459 
    134 H134       31.3198    0.4419   -5.9480 H         1 UNK         0.0612 
    135 H135       32.9030    0.3836   -5.2170 H         1 UNK         0.0612 
    136 H136       34.3267   -1.5988   -4.9717 H         1 UNK         0.0624 
    137 H137       33.8031   -3.2276   -5.3209 H         1 UNK         0.0624 
@<TRIPOS>BOND
     1    1    2 1    
     2    1   72 1    
     3    1   73 1    
     4    1   74 1    
     5    2    3 2    
     6    2    4 am   BACKBONE|DICT|INTERRES
     7    4    5 1    
     8    4   75 1    
     9    5    6 1    
    10    5   35 1    
    11    5   76 1    
    12    6    7 1    
    13    6   77 1    
    14    6   78 1    
    15    7    8 1    
    16    8    9 1    
    17    8   79 1    
    18    8   80 1    
    19    9   10 ar   
    20    9   14 ar   
    21   10   11 ar   
    22   10   81 1    
    23   11   12 ar   
    24   11   71 1    
    25   12   13 ar   
    26   12   82 1    
    27   13   14 ar   
    28   13   15 1    
    29   14   83 1    
    30   15   16 1    
    31   15   84 1    
    32   15   85 1    
    33   16   17 1    
    34   17   18 1    
    35   17   86 1    
    36   17   87 1    
    37   18   19 1    
    38   18   37 1    
    39   18   88 1    
    40   19   20 am   BACKBONE|DICT|INTERRES
    41   19   89 1    
    42   20   21 2    
    43   20   22 1    
    44   22   23 1    
    45   22   24 1    
    46   22   90 1    
    47   23   91 1    
    48   23   92 1    
    49   23   93 1    
    50   24   25 am   BACKBONE|DICT|INTERRES
    51   24   94 1    
    52   25   26 2    
    53   25   27 1    
    54   27   28 1    
    55   27   29 1    
    56   27   95 1    
    57   28   96 1    
    58   28   97 1    
    59   28   98 1    
    60   29   30 am   BACKBONE|DICT|INTERRES
    61   29   99 1    
    62   30   31 2    
    63   30   32 1    
    64   32   33 1    
    65   32   34 1    
    66   32  100 1    
    67   33  101 1    
    68   33  102 1    
    69   33  103 1    
    70   34   35 am   BACKBONE|DICT|INTERRES
    71   34  104 1    
    72   35   36 2    
    73   37   38 2    
    74   37   39 am   BACKBONE|DICT|INTERRES
    75   39   40 1    
    76   39  105 1    
    77   40   41 1    
    78   40   42 1    
    79   40  106 1    
    80   41  107 1    
    81   41  108 1    
    82   41  109 1    
    83   42   43 2    
    84   42   44 am   BACKBONE|DICT|INTERRES
    85   44   45 1    
    86   44  110 1    
    87   45   46 1    
    88   45   47 1    
    89   45  111 1    
    90   46  112 1    
    91   46  113 1    
    92   46  114 1    
    93   47   48 2    
    94   47   49 am   BACKBONE|DICT|INTERRES
    95   49   50 1    
    96   49  115 1    
    97   50   51 1    
    98   50   52 1    
    99   50  116 1    
   100   51  117 1    
   101   51  118 1    
   102   51  119 1    
   103   52   53 2    
   104   52   54 am   BACKBONE|DICT|INTERRES
   105   54   55 1    
   106   54  120 1    
   107   55   56 1    
   108   55   57 1    
   109   55  121 1    
   110   56  122 1    
   111   56  123 1    
   112   56  124 1    
   113   57   58 2    
   114   57   59 am   BACKBONE|DICT|INTERRES
   115   59   60 1    
   116   59  125 1    
   117   60   61 1    
   118   60   62 1    
   119   60  126 1    
   120   61  127 1    
   121   61  128 1    
   122   61  129 1    
   123   62   63 2    
   124   62   64 am   BACKBONE|DICT|INTERRES
   125   64   65 1    
   126   64  130 1    
   127   65   66 1    
   128   65   69 1    
   129   65  131 1    
   130   66   67 am   BACKBONE|DICT|INTERRES
   131   66   68 2    
   132   67  132 1    
   133   67  133 1    
   134   69   70 1    
   135   69  134 1    
   136   69  135 1    
   137   70   71 1    
   138   71  136 1    
   139   71  137 1    
@<TRIPOS>SUBSTRUCTURE
     1 UNK         1 GROUP             0       ****    0 ROOT    
