@<TRIPOS>MOLECULE
3R137
137   139    1
SMALL
USER_CHARGES


@<TRIPOS>ATOM
      1 CA         25.8520   -6.2258   -5.6813 C.3       0 UNK        -0.2020 
      2 C          25.7644   -5.6353   -4.2827 C.2       0 UNK         0.4855 
      3 O          24.6815   -5.2366   -3.8527 O.2       0 UNK        -0.5197 
      4 N          26.8990   -5.5602   -3.5753 N.am      1 UNK        -0.4892 
      5 CA         27.0474   -4.9694   -2.2403 C.3       1 UNK         0.0835 
      6 C6         28.4717   -5.1787   -1.6536 C.3       12 UNK        -0.0855 
      7 S7         29.8451   -4.9632   -2.8470 S.3       12 UNK        -0.2931 
      8 C8         31.1466   -4.2195   -1.8145 C.3       12 UNK         0.0378 
      9 C9         31.2082   -2.7086   -1.9830 C.ar      12 UNK        -0.0802 
     10 C10        31.9813   -2.1556   -3.0087 C.ar      12 UNK        -0.0944 
     11 C11        32.0689   -0.7695   -3.1638 C.ar      12 UNK        -0.0787 
     12 C12        31.3930    0.0646   -2.2709 C.ar      12 UNK        -0.0862 
     13 C13        30.6043   -0.4731   -1.2493 C.ar      12 UNK        -0.0733 
     14 C14        30.5157   -1.8630   -1.1102 C.ar      12 UNK        -0.0832 
     15 C15        29.8513    0.4455   -0.2923 C.3       12 UNK         0.0240 
     16 S16        28.8536    1.7123   -1.1496 S.3       12 UNK        -0.2522 
     17 C17        27.7742    0.6831   -2.1965 C.3       12 UNK        -0.0967 
     18 CA         28.0833    0.8384   -3.7106 C.3       5 UNK         0.0660 
     19 N          27.7876   -0.3930   -4.4486 N.am      5 UNK        -0.4015 
     20 C          27.9538   -0.5908   -5.7647 C.2       4 UNK         0.4946 
     21 O          28.4464    0.2310   -6.5349 O.2       4 UNK        -0.5353 
     22 CA         27.3986   -1.9039   -6.3359 C.3       4 UNK         0.0277 
     23 CB         28.3834   -3.0653   -6.1309 C.3       4 UNK        -0.1981 
     24 N          26.0925   -2.2264   -5.7593 N.am      4 UNK        -0.4209 
     25 C          24.9711   -1.5379   -6.0234 C.2       3 UNK         0.4942 
     26 O          24.9103   -0.6153   -6.8357 O.2       3 UNK        -0.5208 
     27 CA         23.7196   -1.9048   -5.2105 C.3       3 UNK         0.0250 
     28 CB         22.9530   -3.0589   -5.8750 C.3       3 UNK        -0.1990 
     29 N          24.0408   -2.2442   -3.8213 N.am      3 UNK        -0.4232 
     30 C          24.4576   -1.3427   -2.9181 C.2       2 UNK         0.4993 
     31 O          24.5679   -0.1408   -3.1596 O.2       2 UNK        -0.5286 
     32 CA         24.8707   -1.8641   -1.5295 C.3       2 UNK         0.0209 
     33 CB         23.6597   -1.8902   -0.5841 C.3       2 UNK        -0.1931 
     34 N          25.4996   -3.1885   -1.5573 N.am      2 UNK        -0.4546 
     35 C          26.6154   -3.4899   -2.2365 C.2       1 UNK         0.5154 
     36 O          27.2514   -2.6651   -2.8925 O.2       1 UNK        -0.5181 
     37 C          27.3583    2.0644   -4.3052 C.2       5 UNK         0.5014 
     38 O          27.9918    3.0964   -4.5317 O.2       5 UNK        -0.5248 
     39 N          26.0500    1.9168   -4.5658 N.am      6 UNK        -0.4434 
     40 CA         25.2041    2.9308   -5.1972 C.3       6 UNK         0.0363 
     41 CB         23.7320    2.4975   -5.1111 C.3       6 UNK        -0.1936 
     42 C          25.5970    3.2280   -6.6547 C.2       6 UNK         0.5081 
     43 O          25.5867    4.3937   -7.0521 O.2       6 UNK        -0.5248 
     44 N          25.9307    2.1822   -7.4246 N.am      7 UNK        -0.4718 
     45 CA         26.3756    2.2942   -8.8166 C.3       7 UNK         0.0273 
     46 CB         26.3326    0.9100   -9.4829 C.3       7 UNK        -0.1935 
     47 C          27.7758    2.9148   -8.9575 C.2       7 UNK         0.5018 
     48 O          28.0060    3.6648   -9.9074 O.2       7 UNK        -0.5186 
     49 N          28.6858    2.5712   -8.0338 N.am      8 UNK        -0.4240 
     50 CA         30.0964    2.9677   -7.9192 C.3       8 UNK         0.0235 
     51 CB         30.2557    4.4922   -7.7667 C.3       8 UNK        -0.2000 
     52 C          30.9884    2.4123   -9.0416 C.2       8 UNK         0.4941 
     53 O          31.9936    1.7632   -8.7539 O.2       8 UNK        -0.5273 
     54 N          30.5871    2.6126  -10.3034 N.am      9 UNK        -0.4262 
     55 CA         31.2492    2.0879  -11.5046 C.3       9 UNK         0.0264 
     56 CB         30.5600    2.6685  -12.7497 C.3       9 UNK        -0.1955 
     57 C          31.2832    0.5481  -11.5751 C.2       9 UNK         0.5031 
     58 O          32.1244   -0.0083  -12.2815 O.2       9 UNK        -0.5390 
     59 N          30.3830   -0.1068  -10.8304 N.am      10 UNK        -0.4204 
     60 CA         30.3155   -1.5554  -10.6526 C.3       10 UNK         0.0237 
     61 CB         28.9461   -1.9091  -10.0516 C.3       10 UNK        -0.1985 
     62 C          31.4402   -2.1308   -9.7703 C.2       10 UNK         0.4970 
     63 O          31.6705   -3.3389   -9.8415 O.2       10 UNK        -0.4914 
     64 N          32.0968   -1.2957   -8.9520 N.am      11 UNK        -0.4285 
     65 CA         33.1321   -1.7152   -7.9939 C.3       11 UNK         0.1007 
     66 C          34.4373   -0.8737   -8.0511 C.2       11 UNK         0.5703 
     67 N          34.4277    0.3483   -8.5689 N.am      11 UNK        -0.7361 
     68 O          35.4911   -1.3543   -7.6404 O.2       11 UNK        -0.4986 
     69 C69        32.5607   -1.8406   -6.5567 C.3       12 UNK        -0.0947 
     70 S70        31.9636   -0.2550   -5.8685 S.3       12 UNK        -0.2240 
     71 C71        32.8788   -0.1644   -4.2995 C.3       12 UNK         0.0194 
     72 H72        25.5962   -5.4715   -6.4249 H         1 UNK         0.0906 
     73 H73        26.8519   -6.5974   -5.9049 H         1 UNK         0.0906 
     74 H74        25.1524   -7.0551   -5.7821 H         1 UNK         0.0906 
     75 H75        27.7695   -5.8655   -3.9891 H         1 UNK         0.3140 
     76 H76        26.3568   -5.5085   -1.5879 H         1 UNK         0.1085 
     77 H77        28.5481   -6.1979   -1.2715 H         1 UNK         0.0836 
     78 H78        28.6272   -4.5360   -0.7849 H         1 UNK         0.0836 
     79 H79        32.1048   -4.6549   -2.1023 H         1 UNK         0.0731 
     80 H80        31.0040   -4.4868   -0.7664 H         1 UNK         0.0731 
     81 H81        32.5070   -2.8068   -3.6927 H         1 UNK         0.1312 
     82 H82        31.4606    1.1380   -2.3842 H         1 UNK         0.1406 
     83 H83        29.9118   -2.2891   -0.3208 H         1 UNK         0.1631 
     84 H84        30.5719    0.9448    0.3566 H         1 UNK         0.0717 
     85 H85        29.1940   -0.1301    0.3614 H         1 UNK         0.0717 
     86 H86        27.9013   -0.3549   -1.8894 H         1 UNK         0.0934 
     87 H87        26.7346    0.9225   -1.9662 H         1 UNK         0.0934 
     88 H88        29.1554    1.0005   -3.8393 H         1 UNK         0.0739 
     89 H89        27.4507   -1.1775   -3.8929 H         1 UNK         0.3093 
     90 H90        27.2572   -1.7688   -7.4091 H         1 UNK         0.0818 
     91 H91        28.0014   -3.9928   -6.5564 H         1 UNK         0.0819 
     92 H92        29.3335   -2.8519   -6.6216 H         1 UNK         0.0819 
     93 H93        28.5979   -3.2399   -5.0765 H         1 UNK         0.0819 
     94 H94        26.0745   -2.9194   -5.0251 H         1 UNK         0.3041 
     95 H95        23.0652   -1.0302   -5.2007 H         1 UNK         0.0784 
     96 H96        22.6545   -2.7918   -6.8897 H         1 UNK         0.0793 
     97 H97        23.5553   -3.9645   -5.9427 H         1 UNK         0.0793 
     98 H98        22.0444   -3.3011   -5.3236 H         1 UNK         0.0793 
     99 H99        24.0227   -3.2272   -3.5697 H         1 UNK         0.3024 
    100 H100       25.6021   -1.1623   -1.1246 H         1 UNK         0.1171 
    101 H101       23.9529   -2.1619    0.4302 H         1 UNK         0.0786 
    102 H102       23.1863   -0.9086   -0.5299 H         1 UNK         0.0786 
    103 H103       22.9011   -2.5998   -0.9172 H         1 UNK         0.0786 
    104 H104       25.0096   -3.9284   -1.0746 H         1 UNK         0.2977 
    105 H105       25.5880    1.0584   -4.2743 H         1 UNK         0.3127 
    106 H106       25.3192    3.8564   -4.6293 H         1 UNK         0.0770 
    107 H107       23.5564    1.5588   -5.6378 H         1 UNK         0.0814 
    108 H108       23.0769    3.2488   -5.5539 H         1 UNK         0.0814 
    109 H109       23.4182    2.3626   -4.0757 H         1 UNK         0.0814 
    110 H110       25.8574    1.2459   -7.0399 H         1 UNK         0.2983 
    111 H111       25.6755    2.9460   -9.3440 H         1 UNK         0.0947 
    112 H112       26.6627    0.9615  -10.5213 H         1 UNK         0.0806 
    113 H113       25.3210    0.5038   -9.4837 H         1 UNK         0.0806 
    114 H114       26.9750    0.1967   -8.9671 H         1 UNK         0.0806 
    115 H115       28.4069    1.8594   -7.3581 H         1 UNK         0.3000 
    116 H116       30.4457    2.5097   -6.9918 H         1 UNK         0.0850 
    117 H117       31.2984    4.7564   -7.5857 H         1 UNK         0.0810 
    118 H118       29.6752    4.8640   -6.9221 H         1 UNK         0.0810 
    119 H119       29.9346    5.0324   -8.6576 H         1 UNK         0.0810 
    120 H120       29.7224    3.1341  -10.4341 H         1 UNK         0.3040 
    121 H121       32.2848    2.4338  -11.4890 H         1 UNK         0.0766 
    122 H122       31.0421    2.3179  -13.6634 H         1 UNK         0.0812 
    123 H123       30.6074    3.7576  -12.7578 H         1 UNK         0.0812 
    124 H124       29.5099    2.3778  -12.8017 H         1 UNK         0.0812 
    125 H125       29.7361    0.4465  -10.2892 H         1 UNK         0.3205 
    126 H126       30.3950   -2.0252  -11.6353 H         1 UNK         0.0754 
    127 H127       28.8376   -2.9873   -9.9247 H         1 UNK         0.0769 
    128 H128       28.1292   -1.5751  -10.6916 H         1 UNK         0.0769 
    129 H129       28.8193   -1.4507   -9.0711 H         1 UNK         0.0769 
    130 H130       31.8738   -0.3075   -8.9475 H         1 UNK         0.2981 
    131 H131       33.4663   -2.7161   -8.2728 H         1 UNK         0.0541 
    132 H132       35.2904    0.8659   -8.6084 H         1 UNK         0.3459 
    133 H133       33.5520    0.8175   -8.7846 H         1 UNK         0.3459 
    134 H134       31.7265   -2.5427   -6.5515 H         1 UNK         0.0612 
    135 H135       33.3117   -2.2795   -5.8990 H         1 UNK         0.0612 
    136 H136       33.0944    0.8845   -4.0910 H         1 UNK         0.0624 
    137 H137       33.8478   -0.6578   -4.3844 H         1 UNK         0.0624 
@<TRIPOS>BOND
     1    1    2 1    
     2    1   72 1    
     3    1   73 1    
     4    1   74 1    
     5    2    3 2    
     6    2    4 am   BACKBONE|DICT|INTERRES
     7    4    5 1    
     8    4   75 1    
     9    5    6 1    
    10    5   35 1    
    11    5   76 1    
    12    6    7 1    
    13    6   77 1    
    14    6   78 1    
    15    7    8 1    
    16    8    9 1    
    17    8   79 1    
    18    8   80 1    
    19    9   10 ar   
    20    9   14 ar   
    21   10   11 ar   
    22   10   81 1    
    23   11   12 ar   
    24   11   71 1    
    25   12   13 ar   
    26   12   82 1    
    27   13   14 ar   
    28   13   15 1    
    29   14   83 1    
    30   15   16 1    
    31   15   84 1    
    32   15   85 1    
    33   16   17 1    
    34   17   18 1    
    35   17   86 1    
    36   17   87 1    
    37   18   19 1    
    38   18   37 1    
    39   18   88 1    
    40   19   20 am   BACKBONE|DICT|INTERRES
    41   19   89 1    
    42   20   21 2    
    43   20   22 1    
    44   22   23 1    
    45   22   24 1    
    46   22   90 1    
    47   23   91 1    
    48   23   92 1    
    49   23   93 1    
    50   24   25 am   BACKBONE|DICT|INTERRES
    51   24   94 1    
    52   25   26 2    
    53   25   27 1    
    54   27   28 1    
    55   27   29 1    
    56   27   95 1    
    57   28   96 1    
    58   28   97 1    
    59   28   98 1    
    60   29   30 am   BACKBONE|DICT|INTERRES
    61   29   99 1    
    62   30   31 2    
    63   30   32 1    
    64   32   33 1    
    65   32   34 1    
    66   32  100 1    
    67   33  101 1    
    68   33  102 1    
    69   33  103 1    
    70   34   35 am   BACKBONE|DICT|INTERRES
    71   34  104 1    
    72   35   36 2    
    73   37   38 2    
    74   37   39 am   BACKBONE|DICT|INTERRES
    75   39   40 1    
    76   39  105 1    
    77   40   41 1    
    78   40   42 1    
    79   40  106 1    
    80   41  107 1    
    81   41  108 1    
    82   41  109 1    
    83   42   43 2    
    84   42   44 am   BACKBONE|DICT|INTERRES
    85   44   45 1    
    86   44  110 1    
    87   45   46 1    
    88   45   47 1    
    89   45  111 1    
    90   46  112 1    
    91   46  113 1    
    92   46  114 1    
    93   47   48 2    
    94   47   49 am   BACKBONE|DICT|INTERRES
    95   49   50 1    
    96   49  115 1    
    97   50   51 1    
    98   50   52 1    
    99   50  116 1    
   100   51  117 1    
   101   51  118 1    
   102   51  119 1    
   103   52   53 2    
   104   52   54 am   BACKBONE|DICT|INTERRES
   105   54   55 1    
   106   54  120 1    
   107   55   56 1    
   108   55   57 1    
   109   55  121 1    
   110   56  122 1    
   111   56  123 1    
   112   56  124 1    
   113   57   58 2    
   114   57   59 am   BACKBONE|DICT|INTERRES
   115   59   60 1    
   116   59  125 1    
   117   60   61 1    
   118   60   62 1    
   119   60  126 1    
   120   61  127 1    
   121   61  128 1    
   122   61  129 1    
   123   62   63 2    
   124   62   64 am   BACKBONE|DICT|INTERRES
   125   64   65 1    
   126   64  130 1    
   127   65   66 1    
   128   65   69 1    
   129   65  131 1    
   130   66   67 am   BACKBONE|DICT|INTERRES
   131   66   68 2    
   132   67  132 1    
   133   67  133 1    
   134   69   70 1    
   135   69  134 1    
   136   69  135 1    
   137   70   71 1    
   138   71  136 1    
   139   71  137 1    
@<TRIPOS>SUBSTRUCTURE
     1 UNK         1 GROUP             0       ****    0 ROOT    
