@<TRIPOS>MOLECULE
3R137
137   139    1
SMALL
USER_CHARGES


@<TRIPOS>ATOM
      1 CA         27.8131   -5.3642    4.0038 C.3       0 UNK        -0.2020 
      2 C          28.1785   -4.3086    2.9707 C.2       0 UNK         0.4855 
      3 O          29.1042   -3.5286    3.1942 O.2       0 UNK        -0.5197 
      4 N          27.4567   -4.2761    1.8468 N.am      1 UNK        -0.4892 
      5 CA         27.6132   -3.3172    0.7536 C.3       1 UNK         0.0835 
      6 C6         28.8634   -3.6050   -0.1350 C.3       12 UNK        -0.0855 
      7 S7         29.9500   -2.1461   -0.3116 S.3       12 UNK        -0.2931 
      8 C8         29.4969   -1.4307   -1.9258 C.3       12 UNK         0.0378 
      9 C9         29.9997   -2.2536   -3.1026 C.ar      12 UNK        -0.0802 
     10 C10        31.2706   -2.0084   -3.6267 C.ar      12 UNK        -0.0944 
     11 C11        31.7352   -2.7259   -4.7318 C.ar      12 UNK        -0.0787 
     12 C12        30.9257   -3.7154   -5.2998 C.ar      12 UNK        -0.0862 
     13 C13        29.6581   -3.9849   -4.7732 C.ar      12 UNK        -0.0733 
     14 C14        29.1941   -3.2363   -3.6863 C.ar      12 UNK        -0.0832 
     15 C15        28.8170   -5.1217   -5.3426 C.3       12 UNK         0.0240 
     16 S16        27.9466   -4.6705   -6.8772 S.3       12 UNK        -0.2522 
     17 C17        26.6435   -3.5586   -6.2484 C.3       12 UNK        -0.0967 
     18 CA         26.3791   -2.3329   -7.1539 C.3       5 UNK         0.0660 
     19 N          25.2196   -1.5684   -6.6893 N.am      5 UNK        -0.4015 
     20 C          24.5905   -0.6240   -7.4033 C.2       4 UNK         0.4946 
     21 O          24.8867   -0.3263   -8.5586 O.2       4 UNK        -0.5353 
     22 CA         23.4640    0.1484   -6.6972 C.3       4 UNK         0.0277 
     23 CB         22.1366   -0.6205   -6.7928 C.3       4 UNK        -0.1981 
     24 N          23.7675    0.4388   -5.2940 N.am      4 UNK        -0.4209 
     25 C          24.7686    1.2321   -4.8855 C.2       3 UNK         0.4942 
     26 O          25.5166    1.8399   -5.6498 O.2       3 UNK        -0.5208 
     27 CA         25.0052    1.3244   -3.3690 C.3       3 UNK         0.0250 
     28 CB         24.1390    2.4353   -2.7544 C.3       3 UNK        -0.1990 
     29 N          24.7699    0.0623   -2.6567 N.am      3 UNK        -0.4232 
     30 C          25.4500   -1.0705   -2.8776 C.2       2 UNK         0.4993 
     31 O          26.3335   -1.1862   -3.7312 O.2       2 UNK        -0.5286 
     32 CA         25.1109   -2.2703   -1.9901 C.3       2 UNK         0.0209 
     33 CB         24.8223   -3.5275   -2.8366 C.3       2 UNK        -0.1931 
     34 N          26.2501   -2.4798   -1.1021 N.am      2 UNK        -0.4546 
     35 C          26.2922   -3.2917   -0.0420 C.2       1 UNK         0.5154 
     36 O          25.3446   -3.9997    0.3147 O.2       1 UNK        -0.5181 
     37 C          27.6116   -1.4192   -7.2935 C.2       5 UNK         0.5014 
     38 O          28.2683   -1.4460   -8.3356 O.2       5 UNK        -0.5248 
     39 N          27.8655   -0.5884   -6.2711 N.am      6 UNK        -0.4434 
     40 CA         28.9483    0.3972   -6.2655 C.3       6 UNK         0.0363 
     41 CB         28.9897    1.1140   -4.9076 C.3       6 UNK        -0.1936 
     42 C          28.8506    1.4189   -7.4116 C.2       6 UNK         0.5081 
     43 O          29.8727    1.7351   -8.0221 O.2       6 UNK        -0.5248 
     44 N          27.6245    1.8880   -7.6865 N.am      7 UNK        -0.4718 
     45 CA         27.2961    2.8010   -8.7818 C.3       7 UNK         0.0273 
     46 CB         25.9059    3.4091   -8.5374 C.3       7 UNK        -0.1935 
     47 C          27.3556    2.1410  -10.1701 C.2       7 UNK         0.5018 
     48 O          27.7500    2.8099  -11.1257 O.2       7 UNK        -0.5186 
     49 N          26.9576    0.8628  -10.2710 N.am      8 UNK        -0.4240 
     50 CA         27.0445    0.0646  -11.5004 C.3       8 UNK         0.0235 
     51 CB         26.2180   -1.2230  -11.3537 C.3       8 UNK        -0.2000 
     52 C          28.4950   -0.2662  -11.8894 C.2       8 UNK         0.4941 
     53 O          28.8016   -0.3210  -13.0817 O.2       8 UNK        -0.5273 
     54 N          29.3521   -0.4668  -10.8803 N.am      9 UNK        -0.4262 
     55 CA         30.8047   -0.5563  -11.0022 C.3       9 UNK         0.0264 
     56 CB         31.3313   -1.4706   -9.8758 C.3       9 UNK        -0.1955 
     57 C          31.4122    0.8638  -11.0030 C.2       9 UNK         0.5031 
     58 O          30.9869    1.7109  -11.7910 O.2       9 UNK        -0.5390 
     59 N          32.3979    1.1090  -10.1347 N.am      10 UNK        -0.4204 
     60 CA         33.0124    2.4157   -9.8956 C.3       10 UNK         0.0237 
     61 CB         34.0279    2.7499  -11.0099 C.3       10 UNK        -0.1985 
     62 C          33.6334    2.4291   -8.4909 C.2       10 UNK         0.4970 
     63 O          34.7608    2.8979   -8.3214 O.2       10 UNK        -0.4914 
     64 N          32.9137    1.8574   -7.5187 N.am      11 UNK        -0.4285 
     65 CA         33.4026    1.6495   -6.1488 C.3       11 UNK         0.1007 
     66 C          33.1448    2.8863   -5.2489 C.2       11 UNK         0.5703 
     67 N          33.9616    3.0852   -4.2232 N.am      11 UNK        -0.7361 
     68 O          32.1978    3.6457   -5.4465 O.2       11 UNK        -0.4986 
     69 C69        32.8147    0.3630   -5.5162 C.3       12 UNK        -0.0947 
     70 S70        33.0852   -1.1225   -6.5450 S.3       12 UNK        -0.2240 
     71 C71        33.1202   -2.4445   -5.2958 C.3       12 UNK         0.0194 
     72 H72        28.6665   -6.0147    4.1934 H         1 UNK         0.0906 
     73 H73        27.5314   -4.8889    4.9430 H         1 UNK         0.0906 
     74 H74        26.9802   -5.9857    3.6751 H         1 UNK         0.0906 
     75 H75        26.6548   -4.8855    1.7257 H         1 UNK         0.3140 
     76 H76        27.7027   -2.3296    1.2122 H         1 UNK         0.1085 
     77 H77        29.4797   -4.3820    0.3202 H         1 UNK         0.0836 
     78 H78        28.6014   -4.0138   -1.1102 H         1 UNK         0.0836 
     79 H79        28.4233   -1.2785   -1.9961 H         1 UNK         0.0731 
     80 H80        29.9313   -0.4312   -1.9764 H         1 UNK         0.0731 
     81 H81        31.8965   -1.2508   -3.1762 H         1 UNK         0.1312 
     82 H82        31.2861   -4.2851   -6.1456 H         1 UNK         0.1406 
     83 H83        28.2081   -3.4260   -3.2871 H         1 UNK         0.1631 
     84 H84        28.0913   -5.4708   -4.6060 H         1 UNK         0.0717 
     85 H85        29.4645   -5.9747   -5.5510 H         1 UNK         0.0717 
     86 H86        25.7313   -4.1488   -6.1477 H         1 UNK         0.0934 
     87 H87        26.8980   -3.2287   -5.2436 H         1 UNK         0.0934 
     88 H88        26.1386   -2.7058   -8.1521 H         1 UNK         0.0739 
     89 H89        24.9517   -1.7007   -5.7256 H         1 UNK         0.3093 
     90 H90        23.3445    1.1019   -7.2165 H         1 UNK         0.0818 
     91 H91        21.3125   -0.0431   -6.3732 H         1 UNK         0.0819 
     92 H92        21.8840   -0.8317   -7.8330 H         1 UNK         0.0819 
     93 H93        22.1799   -1.5756   -6.2679 H         1 UNK         0.0819 
     94 H94        23.1937   -0.0097   -4.5948 H         1 UNK         0.3041 
     95 H95        26.0536    1.5917   -3.2212 H         1 UNK         0.0784 
     96 H96        24.3127    3.3878   -3.2576 H         1 UNK         0.0793 
     97 H97        23.0744    2.2129   -2.8368 H         1 UNK         0.0793 
     98 H98        24.3716    2.5826   -1.6996 H         1 UNK         0.0793 
     99 H99        24.0709    0.0813   -1.9275 H         1 UNK         0.3024 
    100 H100       24.2283   -2.0397   -1.3893 H         1 UNK         0.1171 
    101 H101       24.0773   -3.3230   -3.6065 H         1 UNK         0.0786 
    102 H102       24.4306   -4.3384   -2.2228 H         1 UNK         0.0786 
    103 H103       25.7188   -3.8965   -3.3332 H         1 UNK         0.0786 
    104 H104       27.0603   -1.9165   -1.3177 H         1 UNK         0.2977 
    105 H105       27.2923   -0.6509   -5.4347 H         1 UNK         0.3127 
    106 H106       29.8766   -0.1603   -6.3998 H         1 UNK         0.0770 
    107 H107       28.0652    1.6557   -4.7088 H         1 UNK         0.0814 
    108 H108       29.8033    1.8396   -4.8711 H         1 UNK         0.0814 
    109 H109       29.1443    0.4077   -4.0948 H         1 UNK         0.0814 
    110 H110       26.8581    1.6227   -7.0734 H         1 UNK         0.2983 
    111 H111       28.0294    3.6106   -8.7730 H         1 UNK         0.0947 
    112 H112       25.6414    4.1130   -9.3277 H         1 UNK         0.0806 
    113 H113       25.8719    3.9530   -7.5932 H         1 UNK         0.0806 
    114 H114       25.1311    2.6418   -8.5084 H         1 UNK         0.0806 
    115 H115       26.5606    0.4042   -9.4569 H         1 UNK         0.3000 
    116 H116       26.6129    0.6527  -12.3131 H         1 UNK         0.0850 
    117 H117       26.2753   -1.8298  -12.2583 H         1 UNK         0.0810 
    118 H118       25.1652   -1.0000  -11.1807 H         1 UNK         0.0810 
    119 H119       26.5719   -1.8370  -10.5250 H         1 UNK         0.0810 
    120 H120       28.9805   -0.4721   -9.9346 H         1 UNK         0.3040 
    121 H121       31.0602   -1.0172  -11.9584 H         1 UNK         0.0766 
    122 H122       32.4084   -1.6253   -9.9492 H         1 UNK         0.0812 
    123 H123       30.8681   -2.4563   -9.9277 H         1 UNK         0.0812 
    124 H124       31.1099   -1.0648   -8.8872 H         1 UNK         0.0812 
    125 H125       32.6959    0.3651   -9.5178 H         1 UNK         0.3205 
    126 H126       32.2293    3.1770   -9.8959 H         1 UNK         0.0754 
    127 H127       34.4782    3.7303  -10.8498 H         1 UNK         0.0769 
    128 H128       33.5532    2.7739  -11.9908 H         1 UNK         0.0769 
    129 H129       34.8362    2.0186  -11.0474 H         1 UNK         0.0769 
    130 H130       31.9456    1.6113   -7.6968 H         1 UNK         0.2981 
    131 H131       34.4847    1.5087   -6.1957 H         1 UNK         0.0541 
    132 H132       34.7373    2.4665   -4.0445 H         1 UNK         0.3459 
    133 H133       33.8034    3.8764   -3.6191 H         1 UNK         0.3459 
    134 H134       31.7477    0.4719   -5.3347 H         1 UNK         0.0612 
    135 H135       33.2731    0.1953   -4.5404 H         1 UNK         0.0612 
    136 H136       33.5224   -3.3476   -5.7570 H         1 UNK         0.0624 
    137 H137       33.8127   -2.1791   -4.4957 H         1 UNK         0.0624 
@<TRIPOS>BOND
     1    1    2 1    
     2    1   72 1    
     3    1   73 1    
     4    1   74 1    
     5    2    3 2    
     6    2    4 am   BACKBONE|DICT|INTERRES
     7    4    5 1    
     8    4   75 1    
     9    5    6 1    
    10    5   35 1    
    11    5   76 1    
    12    6    7 1    
    13    6   77 1    
    14    6   78 1    
    15    7    8 1    
    16    8    9 1    
    17    8   79 1    
    18    8   80 1    
    19    9   10 ar   
    20    9   14 ar   
    21   10   11 ar   
    22   10   81 1    
    23   11   12 ar   
    24   11   71 1    
    25   12   13 ar   
    26   12   82 1    
    27   13   14 ar   
    28   13   15 1    
    29   14   83 1    
    30   15   16 1    
    31   15   84 1    
    32   15   85 1    
    33   16   17 1    
    34   17   18 1    
    35   17   86 1    
    36   17   87 1    
    37   18   19 1    
    38   18   37 1    
    39   18   88 1    
    40   19   20 am   BACKBONE|DICT|INTERRES
    41   19   89 1    
    42   20   21 2    
    43   20   22 1    
    44   22   23 1    
    45   22   24 1    
    46   22   90 1    
    47   23   91 1    
    48   23   92 1    
    49   23   93 1    
    50   24   25 am   BACKBONE|DICT|INTERRES
    51   24   94 1    
    52   25   26 2    
    53   25   27 1    
    54   27   28 1    
    55   27   29 1    
    56   27   95 1    
    57   28   96 1    
    58   28   97 1    
    59   28   98 1    
    60   29   30 am   BACKBONE|DICT|INTERRES
    61   29   99 1    
    62   30   31 2    
    63   30   32 1    
    64   32   33 1    
    65   32   34 1    
    66   32  100 1    
    67   33  101 1    
    68   33  102 1    
    69   33  103 1    
    70   34   35 am   BACKBONE|DICT|INTERRES
    71   34  104 1    
    72   35   36 2    
    73   37   38 2    
    74   37   39 am   BACKBONE|DICT|INTERRES
    75   39   40 1    
    76   39  105 1    
    77   40   41 1    
    78   40   42 1    
    79   40  106 1    
    80   41  107 1    
    81   41  108 1    
    82   41  109 1    
    83   42   43 2    
    84   42   44 am   BACKBONE|DICT|INTERRES
    85   44   45 1    
    86   44  110 1    
    87   45   46 1    
    88   45   47 1    
    89   45  111 1    
    90   46  112 1    
    91   46  113 1    
    92   46  114 1    
    93   47   48 2    
    94   47   49 am   BACKBONE|DICT|INTERRES
    95   49   50 1    
    96   49  115 1    
    97   50   51 1    
    98   50   52 1    
    99   50  116 1    
   100   51  117 1    
   101   51  118 1    
   102   51  119 1    
   103   52   53 2    
   104   52   54 am   BACKBONE|DICT|INTERRES
   105   54   55 1    
   106   54  120 1    
   107   55   56 1    
   108   55   57 1    
   109   55  121 1    
   110   56  122 1    
   111   56  123 1    
   112   56  124 1    
   113   57   58 2    
   114   57   59 am   BACKBONE|DICT|INTERRES
   115   59   60 1    
   116   59  125 1    
   117   60   61 1    
   118   60   62 1    
   119   60  126 1    
   120   61  127 1    
   121   61  128 1    
   122   61  129 1    
   123   62   63 2    
   124   62   64 am   BACKBONE|DICT|INTERRES
   125   64   65 1    
   126   64  130 1    
   127   65   66 1    
   128   65   69 1    
   129   65  131 1    
   130   66   67 am   BACKBONE|DICT|INTERRES
   131   66   68 2    
   132   67  132 1    
   133   67  133 1    
   134   69   70 1    
   135   69  134 1    
   136   69  135 1    
   137   70   71 1    
   138   71  136 1    
   139   71  137 1    
@<TRIPOS>SUBSTRUCTURE
     1 UNK         1 GROUP             0       ****    0 ROOT    
