@<TRIPOS>MOLECULE
3R137
137   139    1
SMALL
USER_CHARGES


@<TRIPOS>ATOM
      1 CA         26.1182   -5.8522    2.8827 C.3       0 UNK        -0.2020 
      2 C          26.2786   -4.4158    2.4073 C.2       0 UNK         0.4855 
      3 O          25.7811   -3.4982    3.0600 O.2       0 UNK        -0.5197 
      4 N          26.9767   -4.2161    1.2814 N.am      1 UNK        -0.4892 
      5 CA         27.2007   -2.9129    0.6461 C.3       1 UNK         0.0835 
      6 C6         28.3231   -3.0062   -0.4240 C.3       12 UNK        -0.0855 
      7 S7         28.6538   -1.4430   -1.3224 S.3       12 UNK        -0.2931 
      8 C8         30.4125   -1.6115   -1.7852 C.3       12 UNK         0.0378 
      9 C9         30.6794   -2.3065   -3.1236 C.ar      12 UNK        -0.0802 
     10 C10        31.8485   -1.9824   -3.8197 C.ar      12 UNK        -0.0944 
     11 C11        32.1770   -2.6291   -5.0140 C.ar      12 UNK        -0.0787 
     12 C12        31.3216   -3.6124   -5.5218 C.ar      12 UNK        -0.0862 
     13 C13        30.1535   -3.9590   -4.8358 C.ar      12 UNK        -0.0733 
     14 C14        29.8330   -3.2925   -3.6488 C.ar      12 UNK        -0.0832 
     15 C15        29.2880   -5.1174   -5.3222 C.3       12 UNK         0.0240 
     16 S16        28.2663   -4.7094   -6.7724 S.3       12 UNK        -0.2522 
     17 C17        26.9964   -3.6104   -6.0552 C.3       12 UNK        -0.0967 
     18 CA         26.6864   -2.3956   -6.9637 C.3       5 UNK         0.0660 
     19 N          25.4950   -1.6657   -6.5241 N.am      5 UNK        -0.4015 
     20 C          24.8612   -0.7388   -7.2615 C.2       4 UNK         0.4946 
     21 O          25.1806   -0.4454   -8.4131 O.2       4 UNK        -0.5353 
     22 CA         23.7000    0.0265   -6.6004 C.3       4 UNK         0.0277 
     23 CB         22.3729   -0.7169   -6.8186 C.3       4 UNK        -0.1981 
     24 N          23.8992    0.2617   -5.1695 N.am      4 UNK        -0.4209 
     25 C          24.9224    0.9485   -4.6419 C.2       3 UNK         0.4942 
     26 O          25.7612    1.5468   -5.3143 O.2       3 UNK        -0.5208 
     27 CA         25.0725    0.9242   -3.1112 C.3       3 UNK         0.0250 
     28 CB         24.4783    2.2010   -2.4962 C.3       3 UNK        -0.1990 
     29 N          24.4983   -0.2511   -2.4412 N.am      3 UNK        -0.4232 
     30 C          24.8020   -1.5304   -2.7047 C.2       2 UNK         0.4993 
     31 O          25.5253   -1.8905   -3.6367 O.2       2 UNK        -0.5286 
     32 CA         24.2245   -2.5884   -1.7493 C.3       2 UNK         0.0209 
     33 CB         23.6095   -3.7662   -2.5254 C.3       2 UNK        -0.1931 
     34 N          25.2910   -3.0841   -0.8801 N.am      2 UNK        -0.4546 
     35 C          25.8858   -2.3475    0.0698 C.2       1 UNK         0.5154 
     36 O          25.4494   -1.2667    0.4718 O.2       1 UNK        -0.5181 
     37 C          27.8876   -1.4428   -7.0844 C.2       5 UNK         0.5014 
     38 O          28.5278   -1.4098   -8.1358 O.2       5 UNK        -0.5248 
     39 N          28.1320   -0.6520   -6.0287 N.am      6 UNK        -0.4434 
     40 CA         29.1978    0.3490   -5.9807 C.3       6 UNK         0.0363 
     41 CB         29.2567    0.9871   -4.5850 C.3       6 UNK        -0.1936 
     42 C          29.0498    1.4281   -7.0640 C.2       6 UNK         0.5081 
     43 O          30.0505    1.8133   -7.6657 O.2       6 UNK        -0.5248 
     44 N          27.8100    1.8679   -7.3182 N.am      7 UNK        -0.4718 
     45 CA         27.4624    2.7935   -8.3957 C.3       7 UNK         0.0273 
     46 CB         26.0015    3.2450   -8.2406 C.3       7 UNK        -0.1935 
     47 C          27.7087    2.1980   -9.7918 C.2       7 UNK         0.5018 
     48 O          28.3427    2.8556  -10.6172 O.2       7 UNK        -0.5186 
     49 N          27.2246    0.9689  -10.0287 N.am      8 UNK        -0.4240 
     50 CA         27.3651    0.2563  -11.3029 C.3       8 UNK         0.0235 
     51 CB         26.4855   -1.0043  -11.2976 C.3       8 UNK        -0.2000 
     52 C          28.8197   -0.1051  -11.6420 C.2       8 UNK         0.4941 
     53 O          29.2351    0.0760  -12.7872 O.2       8 UNK        -0.5273 
     54 N          29.5677   -0.5984  -10.6467 N.am      9 UNK        -0.4262 
     55 CA         30.9776   -0.9734  -10.7799 C.3       9 UNK         0.0264 
     56 CB         31.3122   -2.0236   -9.7092 C.3       9 UNK        -0.1955 
     57 C          31.9468    0.2237  -10.7105 C.2       9 UNK         0.5031 
     58 O          33.1273    0.0434  -11.0136 O.2       9 UNK        -0.5390 
     59 N          31.4442    1.4078  -10.3257 N.am      10 UNK        -0.4204 
     60 CA         32.1665    2.6717  -10.1303 C.3       10 UNK         0.0237 
     61 CB         32.7243    3.2068  -11.4667 C.3       10 UNK        -0.1985 
     62 C          33.2292    2.5742   -9.0175 C.2       10 UNK         0.4970 
     63 O          34.3650    3.0184   -9.1981 O.2       10 UNK        -0.4914 
     64 N          32.8287    1.9864   -7.8852 N.am      11 UNK        -0.4285 
     65 CA         33.6608    1.7818   -6.6894 C.3       11 UNK         0.1007 
     66 C          33.7204    3.0183   -5.7477 C.2       11 UNK         0.5703 
     67 N          32.9115    4.0522   -5.9506 N.am      11 UNK        -0.7361 
     68 O          34.5263    3.0449   -4.8204 O.2       11 UNK        -0.4986 
     69 C69        33.2392    0.5076   -5.9102 C.3       12 UNK        -0.0947 
     70 S70        33.3106   -0.9888   -6.9499 S.3       12 UNK        -0.2240 
     71 C71        33.4891   -2.3120   -5.7180 C.3       12 UNK         0.0194 
     72 H72        26.6115   -6.5611    2.2179 H         1 UNK         0.0906 
     73 H73        26.5460   -5.9678    3.8782 H         1 UNK         0.0906 
     74 H74        25.0618   -6.1146    2.9335 H         1 UNK         0.0906 
     75 H75        27.3652   -5.0151    0.8001 H         1 UNK         0.3140 
     76 H76        27.5357   -2.2173    1.4193 H         1 UNK         0.1085 
     77 H77        29.2454   -3.3337    0.0583 H         1 UNK         0.0836 
     78 H78        28.0765   -3.7817   -1.1487 H         1 UNK         0.0836 
     79 H79        30.9569   -2.1333   -0.9975 H         1 UNK         0.0731 
     80 H80        30.8291   -0.6034   -1.8194 H         1 UNK         0.0731 
     81 H81        32.5216   -1.2369   -3.4186 H         1 UNK         0.1312 
     82 H82        31.5801   -4.1314   -6.4348 H         1 UNK         0.1406 
     83 H83        28.9330   -3.5715   -3.1261 H         1 UNK         0.1631 
     84 H84        28.6417   -5.4820   -4.5221 H         1 UNK         0.0717 
     85 H85        29.9367   -5.9545   -5.5846 H         1 UNK         0.0717 
     86 H86        26.0929   -4.2047   -5.9100 H         1 UNK         0.0934 
     87 H87        27.2995   -3.2834   -5.0597 H         1 UNK         0.0934 
     88 H88        26.4722   -2.7763   -7.9651 H         1 UNK         0.0739 
     89 H89        25.2291   -1.7933   -5.5514 H         1 UNK         0.3093 
     90 H90        23.6306    1.0015   -7.0869 H         1 UNK         0.0818 
     91 H91        21.5284   -0.1435   -6.4360 H         1 UNK         0.0819 
     92 H92        22.1920   -0.8856   -7.8813 H         1 UNK         0.0819 
     93 H93        22.3686   -1.6914   -6.3287 H         1 UNK         0.0819 
     94 H94        23.2562   -0.1914   -4.5369 H         1 UNK         0.3041 
     95 H95        26.1442    0.9130   -2.9013 H         1 UNK         0.0784 
     96 H96        24.9067    3.0927   -2.9569 H         1 UNK         0.0793 
     97 H97        23.3974    2.2502   -2.6335 H         1 UNK         0.0793 
     98 H98        24.6858    2.2612   -1.4275 H         1 UNK         0.0793 
     99 H99        23.9221   -0.0581   -1.6339 H         1 UNK         0.3024 
    100 H100       23.4439   -2.1368   -1.1328 H         1 UNK         0.1171 
    101 H101       23.1720   -4.5006   -1.8489 H         1 UNK         0.0786 
    102 H102       22.8142   -3.4228   -3.1883 H         1 UNK         0.0786 
    103 H103       24.3487   -4.2788   -3.1428 H         1 UNK         0.0786 
    104 H104       25.7183   -3.9581   -1.1476 H         1 UNK         0.2977 
    105 H105       27.5376   -0.7289   -5.2157 H         1 UNK         0.3127 
    106 H106       30.1364   -0.1783   -6.1621 H         1 UNK         0.0770 
    107 H107       28.3386    1.5241   -4.3450 H         1 UNK         0.0814 
    108 H108       30.0790    1.7006   -4.5177 H         1 UNK         0.0814 
    109 H109       29.4159    0.2360   -3.8135 H         1 UNK         0.0814 
    110 H110       27.0507    1.5535   -6.7184 H         1 UNK         0.2983 
    111 H111       28.1019    3.6732   -8.2945 H         1 UNK         0.0947 
    112 H112       25.7292    3.9606   -9.0175 H         1 UNK         0.0806 
    113 H113       25.8376    3.7313   -7.2787 H         1 UNK         0.0806 
    114 H114       25.3091    2.4059   -8.3113 H         1 UNK         0.0806 
    115 H115       26.6916    0.4975   -9.3025 H         1 UNK         0.3000 
    116 H116       27.0003    0.9179  -12.0915 H         1 UNK         0.0850 
    117 H117       26.5769   -1.5511  -12.2371 H         1 UNK         0.0810 
    118 H118       25.4328   -0.7511  -11.1715 H         1 UNK         0.0810 
    119 H119       26.7633   -1.6859  -10.4924 H         1 UNK         0.0810 
    120 H120       29.1379   -0.7635   -9.7357 H         1 UNK         0.3040 
    121 H121       31.1226   -1.4398  -11.7567 H         1 UNK         0.0766 
    122 H122       31.1235   -1.6422   -8.7059 H         1 UNK         0.0812 
    123 H123       32.3607   -2.3203   -9.7572 H         1 UNK         0.0812 
    124 H124       30.7121   -2.9246   -9.8367 H         1 UNK         0.0812 
    125 H125       30.4669    1.4305  -10.0643 H         1 UNK         0.3205 
    126 H126       31.4235    3.3884   -9.7768 H         1 UNK         0.0754 
    127 H127       33.1499    4.2030  -11.3404 H         1 UNK         0.0769 
    128 H128       31.9398    3.2830  -12.2197 H         1 UNK         0.0769 
    129 H129       33.5113    2.5660  -11.8654 H         1 UNK         0.0769 
    130 H130       31.8498    1.7179   -7.8041 H         1 UNK         0.2981 
    131 H131       34.6875    1.6231   -7.0247 H         1 UNK         0.0541 
    132 H132       32.2431    4.0355   -6.7039 H         1 UNK         0.3459 
    133 H133       32.9651    4.8498   -5.3372 H         1 UNK         0.3459 
    134 H134       32.2294    0.6136   -5.5139 H         1 UNK         0.0612 
    135 H135       33.8941    0.3577   -5.0501 H         1 UNK         0.0612 
    136 H136       34.2581   -2.0406   -4.9933 H         1 UNK         0.0624 
    137 H137       33.8569   -3.2055   -6.2247 H         1 UNK         0.0624 
@<TRIPOS>BOND
     1    1    2 1    
     2    1   72 1    
     3    1   73 1    
     4    1   74 1    
     5    2    3 2    
     6    2    4 am   BACKBONE|DICT|INTERRES
     7    4    5 1    
     8    4   75 1    
     9    5    6 1    
    10    5   35 1    
    11    5   76 1    
    12    6    7 1    
    13    6   77 1    
    14    6   78 1    
    15    7    8 1    
    16    8    9 1    
    17    8   79 1    
    18    8   80 1    
    19    9   10 ar   
    20    9   14 ar   
    21   10   11 ar   
    22   10   81 1    
    23   11   12 ar   
    24   11   71 1    
    25   12   13 ar   
    26   12   82 1    
    27   13   14 ar   
    28   13   15 1    
    29   14   83 1    
    30   15   16 1    
    31   15   84 1    
    32   15   85 1    
    33   16   17 1    
    34   17   18 1    
    35   17   86 1    
    36   17   87 1    
    37   18   19 1    
    38   18   37 1    
    39   18   88 1    
    40   19   20 am   BACKBONE|DICT|INTERRES
    41   19   89 1    
    42   20   21 2    
    43   20   22 1    
    44   22   23 1    
    45   22   24 1    
    46   22   90 1    
    47   23   91 1    
    48   23   92 1    
    49   23   93 1    
    50   24   25 am   BACKBONE|DICT|INTERRES
    51   24   94 1    
    52   25   26 2    
    53   25   27 1    
    54   27   28 1    
    55   27   29 1    
    56   27   95 1    
    57   28   96 1    
    58   28   97 1    
    59   28   98 1    
    60   29   30 am   BACKBONE|DICT|INTERRES
    61   29   99 1    
    62   30   31 2    
    63   30   32 1    
    64   32   33 1    
    65   32   34 1    
    66   32  100 1    
    67   33  101 1    
    68   33  102 1    
    69   33  103 1    
    70   34   35 am   BACKBONE|DICT|INTERRES
    71   34  104 1    
    72   35   36 2    
    73   37   38 2    
    74   37   39 am   BACKBONE|DICT|INTERRES
    75   39   40 1    
    76   39  105 1    
    77   40   41 1    
    78   40   42 1    
    79   40  106 1    
    80   41  107 1    
    81   41  108 1    
    82   41  109 1    
    83   42   43 2    
    84   42   44 am   BACKBONE|DICT|INTERRES
    85   44   45 1    
    86   44  110 1    
    87   45   46 1    
    88   45   47 1    
    89   45  111 1    
    90   46  112 1    
    91   46  113 1    
    92   46  114 1    
    93   47   48 2    
    94   47   49 am   BACKBONE|DICT|INTERRES
    95   49   50 1    
    96   49  115 1    
    97   50   51 1    
    98   50   52 1    
    99   50  116 1    
   100   51  117 1    
   101   51  118 1    
   102   51  119 1    
   103   52   53 2    
   104   52   54 am   BACKBONE|DICT|INTERRES
   105   54   55 1    
   106   54  120 1    
   107   55   56 1    
   108   55   57 1    
   109   55  121 1    
   110   56  122 1    
   111   56  123 1    
   112   56  124 1    
   113   57   58 2    
   114   57   59 am   BACKBONE|DICT|INTERRES
   115   59   60 1    
   116   59  125 1    
   117   60   61 1    
   118   60   62 1    
   119   60  126 1    
   120   61  127 1    
   121   61  128 1    
   122   61  129 1    
   123   62   63 2    
   124   62   64 am   BACKBONE|DICT|INTERRES
   125   64   65 1    
   126   64  130 1    
   127   65   66 1    
   128   65   69 1    
   129   65  131 1    
   130   66   67 am   BACKBONE|DICT|INTERRES
   131   66   68 2    
   132   67  132 1    
   133   67  133 1    
   134   69   70 1    
   135   69  134 1    
   136   69  135 1    
   137   70   71 1    
   138   71  136 1    
   139   71  137 1    
@<TRIPOS>SUBSTRUCTURE
     1 UNK         1 GROUP             0       ****    0 ROOT    
