@<TRIPOS>MOLECULE
3R137
137   139    1
SMALL
USER_CHARGES


@<TRIPOS>ATOM
      1 CA         24.4717   -1.6132    0.8198 C.3       0 UNK        -0.2020 
      2 C          25.8215   -1.4769    0.1327 C.2       0 UNK         0.4855 
      3 O          26.3830   -0.3811    0.1022 O.2       0 UNK        -0.5197 
      4 N          26.3425   -2.5766   -0.4304 N.am      1 UNK        -0.4892 
      5 CA         27.6132   -2.6375   -1.1656 C.3       1 UNK         0.0835 
      6 C6         27.9578   -4.0930   -1.5831 C.3       12 UNK        -0.0855 
      7 S7         29.7352   -4.4561   -1.4101 S.3       12 UNK        -0.2931 
      8 C8         30.1839   -5.0505   -3.0761 C.3       12 UNK         0.0378 
      9 C9         30.4375   -3.9241   -4.0717 C.ar      12 UNK        -0.0802 
     10 C10        31.3255   -2.8905   -3.7551 C.ar      12 UNK        -0.0944 
     11 C11        31.6130   -1.8893   -4.6847 C.ar      12 UNK        -0.0787 
     12 C12        30.9956   -1.9206   -5.9371 C.ar      12 UNK        -0.0862 
     13 C13        30.1080   -2.9453   -6.2757 C.ar      12 UNK        -0.0733 
     14 C14        29.8382   -3.9499   -5.3370 C.ar      12 UNK        -0.0832 
     15 C15        29.4968   -2.9612   -7.6778 C.3       12 UNK         0.0240 
     16 S16        27.7394   -3.4461   -7.7432 S.3       12 UNK        -0.2522 
     17 C17        27.0040   -2.2419   -6.5951 C.3       12 UNK        -0.0967 
     18 CA         25.4562   -2.2412   -6.6548 C.3       5 UNK         0.0660 
     19 N          24.8841   -1.8621   -5.3635 N.am      5 UNK        -0.4015 
     20 C          23.5838   -1.8734   -5.0405 C.2       4 UNK         0.4946 
     21 O          22.6840   -2.2063   -5.8133 O.2       4 UNK        -0.5353 
     22 CA         23.2223   -1.4752   -3.6012 C.3       4 UNK         0.0277 
     23 CB         23.2714   -2.7062   -2.6807 C.3       4 UNK        -0.1981 
     24 N          24.1184   -0.4428   -3.0752 N.am      4 UNK        -0.4209 
     25 C          23.8570    0.8721   -3.0908 C.2       3 UNK         0.4942 
     26 O          22.8132    1.3553   -3.5310 O.2       3 UNK        -0.5208 
     27 CA         24.9200    1.8185   -2.5023 C.3       3 UNK         0.0250 
     28 CB         24.5220    2.2608   -1.0845 C.3       3 UNK        -0.1990 
     29 N          26.2603    1.2265   -2.4697 N.am      3 UNK        -0.4232 
     30 C          27.0744    1.1708   -3.5352 C.2       2 UNK         0.4993 
     31 O          26.8003    1.6716   -4.6239 O.2       2 UNK        -0.5286 
     32 CA         28.4179    0.4323   -3.3746 C.3       2 UNK         0.0209 
     33 CB         29.5141    1.4461   -3.0130 C.3       2 UNK        -0.1931 
     34 N          28.4111   -0.6452   -2.3765 N.am      2 UNK        -0.4546 
     35 C          27.5695   -1.6877   -2.3777 C.2       1 UNK         0.5154 
     36 O          26.7081   -1.8656   -3.2404 O.2       1 UNK        -0.5181 
     37 C          24.9463   -1.3423   -7.7971 C.2       5 UNK         0.5014 
     38 O          24.9932   -0.1163   -7.6752 O.2       5 UNK        -0.5248 
     39 N          24.5194   -1.9628   -8.9061 N.am      6 UNK        -0.4434 
     40 CA         24.0294   -1.2792  -10.1097 C.3       6 UNK         0.0363 
     41 CB         23.4325   -2.3154  -11.0754 C.3       6 UNK        -0.1936 
     42 C          25.1037   -0.4366  -10.8220 C.2       6 UNK         0.5081 
     43 O          24.7642    0.5433  -11.4850 O.2       6 UNK        -0.5248 
     44 N          26.3766   -0.8188  -10.6548 N.am      7 UNK        -0.4718 
     45 CA         27.5436   -0.0890  -11.1546 C.3       7 UNK         0.0273 
     46 CB         28.6869   -1.0931  -11.3799 C.3       7 UNK        -0.1935 
     47 C          27.9926    1.0556  -10.2225 C.2       7 UNK         0.5018 
     48 O          28.9298    1.7702  -10.5796 O.2       7 UNK        -0.5186 
     49 N          27.3424    1.2069   -9.0568 N.am      8 UNK        -0.4240 
     50 CA         27.6798    2.1251   -7.9637 C.3       8 UNK         0.0235 
     51 CB         27.5259    3.6003   -8.4004 C.3       8 UNK        -0.2000 
     52 C          29.0502    1.7848   -7.3438 C.2       8 UNK         0.4941 
     53 O          29.4100    0.6072   -7.2796 O.2       8 UNK        -0.5273 
     54 N          29.8082    2.7980   -6.9022 N.am      9 UNK        -0.4262 
     55 CA         31.1365    2.6711   -6.2888 C.3       9 UNK         0.0264 
     56 CB         31.4395    3.9535   -5.4904 C.3       9 UNK        -0.1955 
     57 C          32.2471    2.3345   -7.3094 C.2       9 UNK         0.5031 
     58 O          33.2586    3.0344   -7.3779 O.2       9 UNK        -0.5390 
     59 N          32.0309    1.2759   -8.0977 N.am      10 UNK        -0.4204 
     60 CA         32.9170    0.8219   -9.1722 C.3       10 UNK         0.0237 
     61 CB         32.1087   -0.0611  -10.1363 C.3       10 UNK        -0.1985 
     62 C          34.1680    0.0677   -8.6885 C.2       10 UNK         0.4970 
     63 O          35.1337   -0.0249   -9.4478 O.2       10 UNK        -0.4914 
     64 N          34.1221   -0.4917   -7.4727 N.am      11 UNK        -0.4285 
     65 CA         35.2009   -1.2958   -6.8835 C.3       11 UNK         0.1007 
     66 C          36.4681   -0.4761   -6.5028 C.2       11 UNK         0.5703 
     67 N          37.6065   -1.1389   -6.3458 N.am      11 UNK        -0.7361 
     68 O          36.4295    0.7406   -6.3276 O.2       11 UNK        -0.4986 
     69 C69        34.6702   -2.1978   -5.7355 C.3       12 UNK        -0.0947 
     70 S70        34.3091   -1.3568   -4.1519 S.3       12 UNK        -0.2240 
     71 C71        32.5929   -0.7768   -4.3397 C.3       12 UNK         0.0194 
     72 H72        23.7354   -0.9774    0.3291 H         1 UNK         0.0906 
     73 H73        24.1036   -2.6387    0.7986 H         1 UNK         0.0906 
     74 H74        24.5493   -1.3026    1.8614 H         1 UNK         0.0906 
     75 H75        25.8246   -3.4424   -0.3849 H         1 UNK         0.3140 
     76 H76        28.3762   -2.2775   -0.4716 H         1 UNK         0.1085 
     77 H77        27.4456   -4.8063   -0.9354 H         1 UNK         0.0836 
     78 H78        27.6118   -4.3265   -2.5927 H         1 UNK         0.0836 
     79 H79        29.4128   -5.7327   -3.4374 H         1 UNK         0.0731 
     80 H80        31.0970   -5.6416   -2.9947 H         1 UNK         0.0731 
     81 H81        31.8103   -2.8744   -2.7886 H         1 UNK         0.1312 
     82 H82        31.2139   -1.1503   -6.6608 H         1 UNK         0.1406 
     83 H83        29.1694   -4.7585   -5.5985 H         1 UNK         0.1631 
     84 H84        30.0717   -3.6474   -8.3005 H         1 UNK         0.0717 
     85 H85        29.5885   -1.9770   -8.1390 H         1 UNK         0.0717 
     86 H86        27.3421   -2.5345   -5.6016 H         1 UNK         0.0934 
     87 H87        27.4230   -1.2472   -6.7657 H         1 UNK         0.0934 
     88 H88        25.1120   -3.2619   -6.8360 H         1 UNK         0.0739 
     89 H89        25.5568   -1.6481   -4.6318 H         1 UNK         0.3093 
     90 H90        22.1946   -1.1051   -3.6091 H         1 UNK         0.0818 
     91 H91        22.6139   -3.4946   -3.0497 H         1 UNK         0.0819 
     92 H92        24.2762   -3.1252   -2.6147 H         1 UNK         0.0819 
     93 H93        22.9412   -2.4590   -1.6723 H         1 UNK         0.0819 
     94 H94        25.0288   -0.7538   -2.7584 H         1 UNK         0.3041 
     95 H95        24.9466    2.7100   -3.1330 H         1 UNK         0.0784 
     96 H96        23.5562    2.7678   -1.0921 H         1 UNK         0.0793 
     97 H97        24.4378    1.4147   -0.4026 H         1 UNK         0.0793 
     98 H98        25.2493    2.9572   -0.6668 H         1 UNK         0.0793 
     99 H99        26.5450    0.7833   -1.6012 H         1 UNK         0.3024 
    100 H100       28.6590   -0.0150   -4.3426 H         1 UNK         0.1171 
    101 H101       29.3506    1.8822   -2.0267 H         1 UNK         0.0786 
    102 H102       29.5336    2.2675   -3.7292 H         1 UNK         0.0786 
    103 H103       30.5008    0.9891   -3.0174 H         1 UNK         0.0786 
    104 H104       29.0629   -0.5508   -1.6110 H         1 UNK         0.2977 
    105 H105       24.5240   -2.9730   -8.9307 H         1 UNK         0.3127 
    106 H106       23.2329   -0.5977   -9.8031 H         1 UNK         0.0770 
    107 H107       24.1786   -3.0407  -11.4026 H         1 UNK         0.0814 
    108 H108       23.0354   -1.8317  -11.9691 H         1 UNK         0.0814 
    109 H109       22.6098   -2.8620  -10.6138 H         1 UNK         0.0814 
    110 H110       26.5596   -1.6400  -10.0955 H         1 UNK         0.2983 
    111 H111       27.2945    0.3617  -12.1179 H         1 UNK         0.0947 
    112 H112       28.3809   -1.9025  -12.0430 H         1 UNK         0.0806 
    113 H113       29.0273   -1.5356  -10.4438 H         1 UNK         0.0806 
    114 H114       29.5458   -0.6083  -11.8450 H         1 UNK         0.0806 
    115 H115       26.5798    0.5722   -8.8490 H         1 UNK         0.3000 
    116 H116       26.9396    1.9338   -7.1869 H         1 UNK         0.0850 
    117 H117       27.5653    4.2736   -7.5435 H         1 UNK         0.0810 
    118 H118       26.5632    3.7651   -8.8845 H         1 UNK         0.0810 
    119 H119       28.3037    3.9056   -9.1015 H         1 UNK         0.0810 
    120 H120       29.4609    3.7379   -7.0259 H         1 UNK         0.3040 
    121 H121       31.1008    1.8429   -5.5794 H         1 UNK         0.0766 
    122 H122       31.5150    4.8250   -6.1420 H         1 UNK         0.0812 
    123 H123       30.6677    4.1575   -4.7485 H         1 UNK         0.0812 
    124 H124       32.3850    3.8652   -4.9535 H         1 UNK         0.0812 
    125 H125       31.1354    0.8028   -7.9920 H         1 UNK         0.3205 
    126 H126       33.2623    1.6990   -9.7239 H         1 UNK         0.0754 
    127 H127       32.7321   -0.4274  -10.9533 H         1 UNK         0.0769 
    128 H128       31.2917    0.5017  -10.5859 H         1 UNK         0.0769 
    129 H129       31.6835   -0.9302   -9.6328 H         1 UNK         0.0769 
    130 H130       33.3167   -0.3312   -6.8923 H         1 UNK         0.2981 
    131 H131       35.5218   -1.9759   -7.6756 H         1 UNK         0.0541 
    132 H132       37.6520   -2.1376   -6.4752 H         1 UNK         0.3459 
    133 H133       38.4376   -0.6291   -6.0897 H         1 UNK         0.3459 
    134 H134       35.4137   -2.9655   -5.5157 H         1 UNK         0.0612 
    135 H135       33.7919   -2.7519   -6.0679 H         1 UNK         0.0612 
    136 H136       32.5652    0.0177   -5.0844 H         1 UNK         0.0624 
    137 H137       32.2939   -0.3223   -3.3959 H         1 UNK         0.0624 
@<TRIPOS>BOND
     1    1    2 1    
     2    1   72 1    
     3    1   73 1    
     4    1   74 1    
     5    2    3 2    
     6    2    4 am   BACKBONE|DICT|INTERRES
     7    4    5 1    
     8    4   75 1    
     9    5    6 1    
    10    5   35 1    
    11    5   76 1    
    12    6    7 1    
    13    6   77 1    
    14    6   78 1    
    15    7    8 1    
    16    8    9 1    
    17    8   79 1    
    18    8   80 1    
    19    9   10 ar   
    20    9   14 ar   
    21   10   11 ar   
    22   10   81 1    
    23   11   12 ar   
    24   11   71 1    
    25   12   13 ar   
    26   12   82 1    
    27   13   14 ar   
    28   13   15 1    
    29   14   83 1    
    30   15   16 1    
    31   15   84 1    
    32   15   85 1    
    33   16   17 1    
    34   17   18 1    
    35   17   86 1    
    36   17   87 1    
    37   18   19 1    
    38   18   37 1    
    39   18   88 1    
    40   19   20 am   BACKBONE|DICT|INTERRES
    41   19   89 1    
    42   20   21 2    
    43   20   22 1    
    44   22   23 1    
    45   22   24 1    
    46   22   90 1    
    47   23   91 1    
    48   23   92 1    
    49   23   93 1    
    50   24   25 am   BACKBONE|DICT|INTERRES
    51   24   94 1    
    52   25   26 2    
    53   25   27 1    
    54   27   28 1    
    55   27   29 1    
    56   27   95 1    
    57   28   96 1    
    58   28   97 1    
    59   28   98 1    
    60   29   30 am   BACKBONE|DICT|INTERRES
    61   29   99 1    
    62   30   31 2    
    63   30   32 1    
    64   32   33 1    
    65   32   34 1    
    66   32  100 1    
    67   33  101 1    
    68   33  102 1    
    69   33  103 1    
    70   34   35 am   BACKBONE|DICT|INTERRES
    71   34  104 1    
    72   35   36 2    
    73   37   38 2    
    74   37   39 am   BACKBONE|DICT|INTERRES
    75   39   40 1    
    76   39  105 1    
    77   40   41 1    
    78   40   42 1    
    79   40  106 1    
    80   41  107 1    
    81   41  108 1    
    82   41  109 1    
    83   42   43 2    
    84   42   44 am   BACKBONE|DICT|INTERRES
    85   44   45 1    
    86   44  110 1    
    87   45   46 1    
    88   45   47 1    
    89   45  111 1    
    90   46  112 1    
    91   46  113 1    
    92   46  114 1    
    93   47   48 2    
    94   47   49 am   BACKBONE|DICT|INTERRES
    95   49   50 1    
    96   49  115 1    
    97   50   51 1    
    98   50   52 1    
    99   50  116 1    
   100   51  117 1    
   101   51  118 1    
   102   51  119 1    
   103   52   53 2    
   104   52   54 am   BACKBONE|DICT|INTERRES
   105   54   55 1    
   106   54  120 1    
   107   55   56 1    
   108   55   57 1    
   109   55  121 1    
   110   56  122 1    
   111   56  123 1    
   112   56  124 1    
   113   57   58 2    
   114   57   59 am   BACKBONE|DICT|INTERRES
   115   59   60 1    
   116   59  125 1    
   117   60   61 1    
   118   60   62 1    
   119   60  126 1    
   120   61  127 1    
   121   61  128 1    
   122   61  129 1    
   123   62   63 2    
   124   62   64 am   BACKBONE|DICT|INTERRES
   125   64   65 1    
   126   64  130 1    
   127   65   66 1    
   128   65   69 1    
   129   65  131 1    
   130   66   67 am   BACKBONE|DICT|INTERRES
   131   66   68 2    
   132   67  132 1    
   133   67  133 1    
   134   69   70 1    
   135   69  134 1    
   136   69  135 1    
   137   70   71 1    
   138   71  136 1    
   139   71  137 1    
@<TRIPOS>SUBSTRUCTURE
     1 UNK         1 GROUP             0       ****    0 ROOT    
