@<TRIPOS>MOLECULE
3R137
137   139    1
SMALL
USER_CHARGES


@<TRIPOS>ATOM
      1 CA         27.1247   -0.4974   -0.5305 C.3       0 UNK        -0.2020 
      2 C          27.3091   -1.2410    0.7920 C.2       0 UNK         0.4855 
      3 O          27.0892   -0.6471    1.8457 O.2       0 UNK        -0.5197 
      4 N          27.7182   -2.5186    0.8069 N.am      1 UNK        -0.4892 
      5 CA         27.9707   -3.3973   -0.3436 C.3       1 UNK         0.0835 
      6 C6         28.6521   -4.7256    0.0740 C.3       12 UNK        -0.0855 
      7 S7         30.2217   -4.4586    0.9700 S.3       12 UNK        -0.2931 
      8 C8         31.4732   -4.7495   -0.3302 C.3       12 UNK         0.0378 
      9 C9         31.4058   -3.7554   -1.4877 C.ar      12 UNK        -0.0802 
     10 C10        31.5329   -4.2116   -2.8036 C.ar      12 UNK        -0.0944 
     11 C11        31.4877   -3.3146   -3.8744 C.ar      12 UNK        -0.0787 
     12 C12        31.2874   -1.9559   -3.6240 C.ar      12 UNK        -0.0862 
     13 C13        31.1482   -1.4787   -2.3147 C.ar      12 UNK        -0.0733 
     14 C14        31.2419   -2.3848   -1.2541 C.ar      12 UNK        -0.0832 
     15 C15        30.9016   -0.0035   -1.9894 C.3       12 UNK         0.0240 
     16 S16        30.4194    1.0641   -3.3921 S.3       12 UNK        -0.2522 
     17 C17        28.8231    0.3459   -3.9164 C.3       12 UNK        -0.0967 
     18 CA         28.5073    0.6858   -5.3960 C.3       5 UNK         0.0660 
     19 N          27.5811   -0.2732   -6.0066 N.am      5 UNK        -0.4015 
     20 C          27.3360   -0.3428   -7.3264 C.2       4 UNK         0.4946 
     21 O          27.9585    0.3059   -8.1661 O.2       4 UNK        -0.5353 
     22 CA         26.1913   -1.2509   -7.8173 C.3       4 UNK         0.0277 
     23 CB         26.7459   -2.5782   -8.3545 C.3       4 UNK        -0.1981 
     24 N          25.1722   -1.5298   -6.8078 N.am      4 UNK        -0.4209 
     25 C          24.4281   -0.6147   -6.1701 C.2       3 UNK         0.4942 
     26 O          24.4322    0.5843   -6.4504 O.2       3 UNK        -0.5208 
     27 CA         23.6053   -1.1139   -4.9657 C.3       3 UNK         0.0250 
     28 CB         22.1346   -1.3088   -5.3658 C.3       3 UNK        -0.1990 
     29 N          24.1200   -2.3563   -4.3658 N.am      3 UNK        -0.4232 
     30 C          25.3494   -2.5080   -3.8510 C.2       2 UNK         0.4993 
     31 O          26.1872   -1.6015   -3.8057 O.2       2 UNK        -0.5286 
     32 CA         25.7431   -3.9280   -3.4164 C.3       2 UNK         0.0209 
     33 CB         26.1999   -4.7457   -4.6369 C.3       2 UNK        -0.1931 
     34 N          26.8449   -3.8711   -2.4575 N.am      2 UNK        -0.4546 
     35 C          26.6841   -3.6727   -1.1455 C.2       1 UNK         0.5154 
     36 O          25.5893   -3.6947   -0.5765 O.2       1 UNK        -0.5181 
     37 C          27.9738    2.1263   -5.5299 C.2       5 UNK         0.5014 
     38 O          28.6999    3.0072   -5.9910 O.2       5 UNK        -0.5248 
     39 N          26.7011    2.3295   -5.1553 N.am      6 UNK        -0.4434 
     40 CA         26.0062    3.6184   -5.2227 C.3       6 UNK         0.0363 
     41 CB         24.6725    3.5257   -4.4641 C.3       6 UNK        -0.1936 
     42 C          25.7820    4.0960   -6.6665 C.2       6 UNK         0.5081 
     43 O          25.8807    5.2940   -6.9318 O.2       6 UNK        -0.5248 
     44 N          25.5209    3.1489   -7.5773 N.am      7 UNK        -0.4718 
     45 CA         25.4141    3.3906   -9.0188 C.3       7 UNK         0.0273 
     46 CB         24.6952    2.1976   -9.6690 C.3       7 UNK        -0.1935 
     47 C          26.7714    3.6321   -9.7103 C.2       7 UNK         0.5018 
     48 O          26.7747    4.0762  -10.8590 O.2       7 UNK        -0.5186 
     49 N          27.8824    3.3121   -9.0253 N.am      8 UNK        -0.4240 
     50 CA         29.2691    3.3106   -9.5126 C.3       8 UNK         0.0235 
     51 CB         29.7546    4.7462   -9.8042 C.3       8 UNK        -0.2000 
     52 C          29.4751    2.3456  -10.6989 C.2       8 UNK         0.4941 
     53 O          30.2011    2.6640  -11.6428 O.2       8 UNK        -0.5273 
     54 N          28.8108    1.1866  -10.6268 N.am      9 UNK        -0.4262 
     55 CA         28.7872    0.1467  -11.6529 C.3       9 UNK         0.0264 
     56 CB         27.3358   -0.3314  -11.8289 C.3       9 UNK        -0.1955 
     57 C          29.7051   -1.0387  -11.3124 C.2       9 UNK         0.5031 
     58 O          30.0192   -1.8161  -12.2154 O.2       9 UNK        -0.5390 
     59 N          30.1206   -1.1714  -10.0458 N.am      10 UNK        -0.4204 
     60 CA         31.0358   -2.2083   -9.5735 C.3       10 UNK         0.0237 
     61 CB         30.2357   -3.3789   -8.9760 C.3       10 UNK        -0.1985 
     62 C          31.9843   -1.6183   -8.5270 C.2       10 UNK         0.4970 
     63 O          31.6075   -0.6765   -7.8249 O.2       10 UNK        -0.4914 
     64 N          33.1740   -2.2239   -8.4266 N.am      11 UNK        -0.4285 
     65 CA         34.2563   -1.8819   -7.4888 C.3       11 UNK         0.1007 
     66 C          34.8204   -0.4416   -7.7003 C.2       11 UNK         0.5703 
     67 N          35.4620    0.1550   -6.7035 N.am      11 UNK        -0.7361 
     68 O          34.7362    0.1239   -8.7896 O.2       11 UNK        -0.4986 
     69 C69        33.8968   -2.2180   -6.0106 C.3       12 UNK        -0.0947 
     70 S70        33.4011   -3.9618   -5.7729 S.3       12 UNK        -0.2240 
     71 C71        31.6478   -3.8105   -5.3042 C.3       12 UNK         0.0194 
     72 H72        26.1208   -0.6630   -0.9210 H         1 UNK         0.0906 
     73 H73        27.2524    0.5745   -0.3818 H         1 UNK         0.0906 
     74 H74        27.8425   -0.8052   -1.2873 H         1 UNK         0.0906 
     75 H75        27.8334   -2.9676    1.7041 H         1 UNK         0.3140 
     76 H76        28.6536   -2.8730   -1.0096 H         1 UNK         0.1085 
     77 H77        28.8465   -5.3531   -0.7984 H         1 UNK         0.0836 
     78 H78        27.9901   -5.3059    0.7199 H         1 UNK         0.0836 
     79 H79        31.3652   -5.7730   -0.6931 H         1 UNK         0.0731 
     80 H80        32.4644   -4.6871    0.1206 H         1 UNK         0.0731 
     81 H81        31.6810   -5.2652   -2.9984 H         1 UNK         0.1312 
     82 H82        31.2375   -1.2755   -4.4615 H         1 UNK         0.1406 
     83 H83        31.1566   -2.0247   -0.2373 H         1 UNK         0.1631 
     84 H84        31.8141    0.4058   -1.5541 H         1 UNK         0.0717 
     85 H85        30.1330    0.0772   -1.2198 H         1 UNK         0.0717 
     86 H86        28.8653   -0.7358   -3.7897 H         1 UNK         0.0934 
     87 H87        28.0334    0.6848   -3.2432 H         1 UNK         0.0934 
     88 H88        29.4369    0.6224   -5.9677 H         1 UNK         0.0739 
     89 H89        27.0314   -0.8358   -5.3625 H         1 UNK         0.3093 
     90 H90        25.6962   -0.7345   -8.6399 H         1 UNK         0.0818 
     91 H91        27.2388   -3.1575   -7.5730 H         1 UNK         0.0819 
     92 H92        25.9558   -3.1952   -8.7828 H         1 UNK         0.0819 
     93 H93        27.4759   -2.4028   -9.1449 H         1 UNK         0.0819 
     94 H94        25.0827   -2.4904   -6.5138 H         1 UNK         0.3041 
     95 H95        23.6533   -0.3355   -4.2013 H         1 UNK         0.0784 
     96 H96        21.7219   -0.3929   -5.7917 H         1 UNK         0.0793 
     97 H97        22.0187   -2.0959   -6.1120 H         1 UNK         0.0793 
     98 H98        21.5191   -1.5677   -4.5040 H         1 UNK         0.0793 
     99 H99        23.4958   -3.1509   -4.3789 H         1 UNK         0.3024 
    100 H100       24.8788   -4.4156   -2.9587 H         1 UNK         0.1171 
    101 H101       26.5002   -5.7529   -4.3466 H         1 UNK         0.0786 
    102 H102       25.3962   -4.8505   -5.3668 H         1 UNK         0.0786 
    103 H103       27.0456   -4.2798   -5.1450 H         1 UNK         0.0786 
    104 H104       27.7718   -3.8081   -2.8536 H         1 UNK         0.2977 
    105 H105       26.1531    1.5389   -4.8471 H         1 UNK         0.3127 
    106 H106       26.6319    4.3613   -4.7232 H         1 UNK         0.0770 
    107 H107       24.0020    2.7899   -4.9096 H         1 UNK         0.0814 
    108 H108       24.1534    4.4851   -4.4733 H         1 UNK         0.0814 
    109 H109       24.8268    3.2522   -3.4203 H         1 UNK         0.0814 
    110 H110       25.3734    2.1973   -7.2535 H         1 UNK         0.2983 
    111 H111       24.8050    4.2841   -9.1729 H         1 UNK         0.0947 
    112 H112       24.4923    2.3926  -10.7230 H         1 UNK         0.0806 
    113 H113       23.7392    1.9932   -9.1863 H         1 UNK         0.0806 
    114 H114       25.2992    1.2926   -9.6196 H         1 UNK         0.0806 
    115 H115       27.7634    2.9608   -8.0832 H         1 UNK         0.3000 
    116 H116       29.8750    2.9167   -8.6948 H         1 UNK         0.0850 
    117 H117       30.8195    4.7578  -10.0393 H         1 UNK         0.0810 
    118 H118       29.6067    5.3961   -8.9417 H         1 UNK         0.0810 
    119 H119       29.2303    5.1879  -10.6520 H         1 UNK         0.0810 
    120 H120       28.3075    0.9804   -9.7634 H         1 UNK         0.3040 
    121 H121       29.1264    0.5581  -12.6059 H         1 UNK         0.0766 
    122 H122       26.6849    0.4888  -12.1326 H         1 UNK         0.0812 
    123 H123       26.9336   -0.7525  -10.9076 H         1 UNK         0.0812 
    124 H124       27.2672   -1.1015  -12.5985 H         1 UNK         0.0812 
    125 H125       29.8570   -0.4787   -9.3538 H         1 UNK         0.3205 
    126 H126       31.6386   -2.5748  -10.4075 H         1 UNK         0.0754 
    127 H127       30.8987   -4.1828   -8.6535 H         1 UNK         0.0769 
    128 H128       29.5451   -3.8024   -9.7055 H         1 UNK         0.0769 
    129 H129       29.6596   -3.0653   -8.1052 H         1 UNK         0.0769 
    130 H130       33.3840   -2.9809   -9.0602 H         1 UNK         0.2981 
    131 H131       35.0840   -2.5336   -7.7700 H         1 UNK         0.0541 
    132 H132       35.5669   -0.2936   -5.8076 H         1 UNK         0.3459 
    133 H133       35.8449    1.0756   -6.8514 H         1 UNK         0.3459 
    134 H134       34.7546   -2.0520   -5.3580 H         1 UNK         0.0612 
    135 H135       33.1153   -1.5476   -5.6580 H         1 UNK         0.0612 
    136 H136       31.1711   -4.7861   -5.4093 H         1 UNK         0.0624 
    137 H137       31.1373   -3.1455   -6.0018 H         1 UNK         0.0624 
@<TRIPOS>BOND
     1    1    2 1    
     2    1   72 1    
     3    1   73 1    
     4    1   74 1    
     5    2    3 2    
     6    2    4 am   BACKBONE|DICT|INTERRES
     7    4    5 1    
     8    4   75 1    
     9    5    6 1    
    10    5   35 1    
    11    5   76 1    
    12    6    7 1    
    13    6   77 1    
    14    6   78 1    
    15    7    8 1    
    16    8    9 1    
    17    8   79 1    
    18    8   80 1    
    19    9   10 ar   
    20    9   14 ar   
    21   10   11 ar   
    22   10   81 1    
    23   11   12 ar   
    24   11   71 1    
    25   12   13 ar   
    26   12   82 1    
    27   13   14 ar   
    28   13   15 1    
    29   14   83 1    
    30   15   16 1    
    31   15   84 1    
    32   15   85 1    
    33   16   17 1    
    34   17   18 1    
    35   17   86 1    
    36   17   87 1    
    37   18   19 1    
    38   18   37 1    
    39   18   88 1    
    40   19   20 am   BACKBONE|DICT|INTERRES
    41   19   89 1    
    42   20   21 2    
    43   20   22 1    
    44   22   23 1    
    45   22   24 1    
    46   22   90 1    
    47   23   91 1    
    48   23   92 1    
    49   23   93 1    
    50   24   25 am   BACKBONE|DICT|INTERRES
    51   24   94 1    
    52   25   26 2    
    53   25   27 1    
    54   27   28 1    
    55   27   29 1    
    56   27   95 1    
    57   28   96 1    
    58   28   97 1    
    59   28   98 1    
    60   29   30 am   BACKBONE|DICT|INTERRES
    61   29   99 1    
    62   30   31 2    
    63   30   32 1    
    64   32   33 1    
    65   32   34 1    
    66   32  100 1    
    67   33  101 1    
    68   33  102 1    
    69   33  103 1    
    70   34   35 am   BACKBONE|DICT|INTERRES
    71   34  104 1    
    72   35   36 2    
    73   37   38 2    
    74   37   39 am   BACKBONE|DICT|INTERRES
    75   39   40 1    
    76   39  105 1    
    77   40   41 1    
    78   40   42 1    
    79   40  106 1    
    80   41  107 1    
    81   41  108 1    
    82   41  109 1    
    83   42   43 2    
    84   42   44 am   BACKBONE|DICT|INTERRES
    85   44   45 1    
    86   44  110 1    
    87   45   46 1    
    88   45   47 1    
    89   45  111 1    
    90   46  112 1    
    91   46  113 1    
    92   46  114 1    
    93   47   48 2    
    94   47   49 am   BACKBONE|DICT|INTERRES
    95   49   50 1    
    96   49  115 1    
    97   50   51 1    
    98   50   52 1    
    99   50  116 1    
   100   51  117 1    
   101   51  118 1    
   102   51  119 1    
   103   52   53 2    
   104   52   54 am   BACKBONE|DICT|INTERRES
   105   54   55 1    
   106   54  120 1    
   107   55   56 1    
   108   55   57 1    
   109   55  121 1    
   110   56  122 1    
   111   56  123 1    
   112   56  124 1    
   113   57   58 2    
   114   57   59 am   BACKBONE|DICT|INTERRES
   115   59   60 1    
   116   59  125 1    
   117   60   61 1    
   118   60   62 1    
   119   60  126 1    
   120   61  127 1    
   121   61  128 1    
   122   61  129 1    
   123   62   63 2    
   124   62   64 am   BACKBONE|DICT|INTERRES
   125   64   65 1    
   126   64  130 1    
   127   65   66 1    
   128   65   69 1    
   129   65  131 1    
   130   66   67 am   BACKBONE|DICT|INTERRES
   131   66   68 2    
   132   67  132 1    
   133   67  133 1    
   134   69   70 1    
   135   69  134 1    
   136   69  135 1    
   137   70   71 1    
   138   71  136 1    
   139   71  137 1    
@<TRIPOS>SUBSTRUCTURE
     1 UNK         1 GROUP             0       ****    0 ROOT    
