@<TRIPOS>MOLECULE
3R137
137   139    1
SMALL
USER_CHARGES


@<TRIPOS>ATOM
      1 CA         29.4430    0.8838   -0.2691 C.3       0 UNK        -0.2020 
      2 C          28.3893    0.0328   -0.9599 C.2       0 UNK         0.4855 
      3 O          27.6070    0.5566   -1.7523 O.2       0 UNK        -0.5197 
      4 N          28.3499   -1.2706   -0.6477 N.am      1 UNK        -0.4892 
      5 CA         27.5212   -2.3143   -1.2799 C.3       1 UNK         0.0835 
      6 C6         27.8711   -3.7270   -0.7478 C.3       12 UNK        -0.0855 
      7 S7         29.6607   -4.0945   -0.7513 S.3       12 UNK        -0.2931 
      8 C8         29.8340   -5.2926   -2.1210 C.3       12 UNK         0.0378 
      9 C9         30.2319   -4.6880   -3.4689 C.ar      12 UNK        -0.0802 
     10 C10        31.0710   -3.5709   -3.5591 C.ar      12 UNK        -0.0944 
     11 C11        31.5213   -3.0985   -4.7963 C.ar      12 UNK        -0.0787 
     12 C12        31.1236   -3.7692   -5.9631 C.ar      12 UNK        -0.0862 
     13 C13        30.2879   -4.8894   -5.8929 C.ar      12 UNK        -0.0733 
     14 C14        29.8386   -5.3331   -4.6450 C.ar      12 UNK        -0.0832 
     15 C15        29.9331   -5.6783   -7.1510 C.3       12 UNK         0.0240 
     16 S16        28.9663   -4.7326   -8.3719 S.3       12 UNK        -0.2522 
     17 C17        27.4317   -4.3671   -7.4499 C.3       12 UNK        -0.0967 
     18 CA         26.7567   -3.0344   -7.8825 C.3       5 UNK         0.0660 
     19 N          25.4619   -2.7866   -7.2349 N.am      5 UNK        -0.4015 
     20 C          25.2289   -2.6631   -5.9210 C.2       4 UNK         0.4946 
     21 O          26.0702   -2.8853   -5.0466 O.2       4 UNK        -0.5353 
     22 CA         23.8434   -2.1324   -5.5189 C.3       4 UNK         0.0277 
     23 CB         23.0159   -3.2291   -4.8303 C.3       4 UNK        -0.1981 
     24 N          23.9570   -0.9770   -4.6250 N.am      4 UNK        -0.4209 
     25 C          24.6154    0.1604   -4.8898 C.2       3 UNK         0.4942 
     26 O          25.1547    0.3950   -5.9723 O.2       3 UNK        -0.5208 
     27 CA         24.7240    1.2149   -3.7717 C.3       3 UNK         0.0250 
     28 CB         23.6447    2.3042   -3.9242 C.3       3 UNK        -0.1990 
     29 N          24.7660    0.6665   -2.4075 N.am      3 UNK        -0.4232 
     30 C          23.7962    0.0556   -1.7058 C.2       2 UNK         0.4993 
     31 O          22.6486   -0.1058   -2.1233 O.2       2 UNK        -0.5286 
     32 CA         24.2070   -0.5300   -0.3365 C.3       2 UNK         0.0209 
     33 CB         23.1808   -1.5381    0.2246 C.3       2 UNK        -0.1931 
     34 N          25.5551   -1.1149   -0.3719 N.am      2 UNK        -0.4546 
     35 C          25.9933   -2.0838   -1.1931 C.2       1 UNK         0.5154 
     36 O          25.2454   -2.7733   -1.8855 O.2       1 UNK        -0.5181 
     37 C          27.6945   -1.8148   -7.7515 C.2       5 UNK         0.5014 
     38 O          28.0968   -1.2534   -8.7696 O.2       5 UNK        -0.5248 
     39 N          28.0128   -1.4305   -6.5110 N.am      6 UNK        -0.4434 
     40 CA         29.0098   -0.4358   -6.1216 C.3       6 UNK         0.0363 
     41 CB         28.9754   -0.2838   -4.5972 C.3       6 UNK        -0.1936 
     42 C          28.8926    0.9345   -6.8080 C.2       6 UNK         0.5081 
     43 O          29.9222    1.5157   -7.1548 O.2       6 UNK        -0.5248 
     44 N          27.6635    1.4275   -7.0135 N.am      7 UNK        -0.4718 
     45 CA         27.4073    2.6983   -7.6987 C.3       7 UNK         0.0273 
     46 CB         25.9787    3.1730   -7.3908 C.3       7 UNK        -0.1935 
     47 C          27.6352    2.6245   -9.2187 C.2       7 UNK         0.5018 
     48 O          28.0189    3.6309   -9.8149 O.2       7 UNK        -0.5186 
     49 N          27.4060    1.4474   -9.8172 N.am      8 UNK        -0.4240 
     50 CA         27.6260    1.1863  -11.2422 C.3       8 UNK         0.0235 
     51 CB         26.6958    0.0550  -11.7108 C.3       8 UNK        -0.2000 
     52 C          29.0949    0.8396  -11.5258 C.2       8 UNK         0.4941 
     53 O          29.6527    1.3136  -12.5156 O.2       8 UNK        -0.5273 
     54 N          29.6985    0.0401  -10.6363 N.am      9 UNK        -0.4262 
     55 CA         31.1092   -0.3519  -10.6593 C.3       9 UNK         0.0264 
     56 CB         31.2944   -1.5623   -9.7298 C.3       9 UNK        -0.1955 
     57 C          32.0763    0.7863  -10.2777 C.2       9 UNK         0.5031 
     58 O          33.2719    0.6619  -10.5468 O.2       9 UNK        -0.5390 
     59 N          31.5472    1.8614   -9.6733 N.am      10 UNK        -0.4204 
     60 CA         32.2415    3.0602   -9.1916 C.3       10 UNK         0.0237 
     61 CB         32.8887    3.8407  -10.3561 C.3       10 UNK        -0.1985 
     62 C          33.2188    2.7407   -8.0458 C.2       10 UNK         0.4970 
     63 O          34.3765    3.1632   -8.0779 O.2       10 UNK        -0.4914 
     64 N          32.7170    2.0017   -7.0523 N.am      11 UNK        -0.4285 
     65 CA         33.4385    1.5846   -5.8417 C.3       11 UNK         0.1007 
     66 C          32.6414    1.8257   -4.5282 C.2       11 UNK         0.5703 
     67 N          31.4783    2.4660   -4.5635 N.am      11 UNK        -0.7361 
     68 O          33.1011    1.4589   -3.4496 O.2       11 UNK        -0.4986 
     69 C69        34.0222    0.1496   -5.9697 C.3       12 UNK        -0.0947 
     70 S70        32.7994   -1.1306   -6.4150 S.3       12 UNK        -0.2240 
     71 C71        32.4782   -1.9025   -4.7940 C.3       12 UNK         0.0194 
     72 H72        30.1244    1.3044   -1.0083 H         1 UNK         0.0906 
     73 H73        28.9699    1.7067    0.2659 H         1 UNK         0.0906 
     74 H74        30.0309    0.3071    0.4448 H         1 UNK         0.0906 
     75 H75        29.0230   -1.6303    0.0154 H         1 UNK         0.3140 
     76 H76        27.7600   -2.2954   -2.3456 H         1 UNK         0.1085 
     77 H77        27.5215   -3.8370    0.2808 H         1 UNK         0.0836 
     78 H78        27.3416   -4.4890   -1.3229 H         1 UNK         0.0836 
     79 H79        30.6119   -6.0039   -1.8408 H         1 UNK         0.0731 
     80 H80        28.9180   -5.8772   -2.2166 H         1 UNK         0.0731 
     81 H81        31.4076   -3.0790   -2.6571 H         1 UNK         0.1312 
     82 H82        31.4769   -3.4473   -6.9322 H         1 UNK         0.1406 
     83 H83        29.2149   -6.2150   -4.5854 H         1 UNK         0.1631 
     84 H84        29.3808   -6.5850   -6.8994 H         1 UNK         0.0717 
     85 H85        30.8574   -6.0105   -7.6256 H         1 UNK         0.0717 
     86 H86        26.7407   -5.1972   -7.6025 H         1 UNK         0.0934 
     87 H87        27.6534   -4.3574   -6.3830 H         1 UNK         0.0934 
     88 H88        26.5279   -3.1261   -8.9457 H         1 UNK         0.0739 
     89 H89        24.7104   -2.5564   -7.8699 H         1 UNK         0.3093 
     90 H90        23.3099   -1.8028   -6.4126 H         1 UNK         0.0818 
     91 H91        22.0184   -2.8727   -4.5725 H         1 UNK         0.0819 
     92 H92        22.8939   -4.0950   -5.4822 H         1 UNK         0.0819 
     93 H93        23.4952   -3.5757   -3.9133 H         1 UNK         0.0819 
     94 H94        23.5371   -1.0654   -3.7071 H         1 UNK         0.3041 
     95 H95        25.6930    1.6976   -3.9105 H         1 UNK         0.0784 
     96 H96        23.7089    2.7780   -4.9046 H         1 UNK         0.0793 
     97 H97        22.6370    1.8993   -3.8297 H         1 UNK         0.0793 
     98 H98        23.7643    3.0883   -3.1767 H         1 UNK         0.0793 
     99 H99        25.6995    0.6696   -2.0000 H         1 UNK         0.3024 
    100 H100       24.2498    0.3161    0.3514 H         1 UNK         0.1171 
    101 H101       23.0313   -2.3839   -0.4471 H         1 UNK         0.0786 
    102 H102       22.2089   -1.0649    0.3698 H         1 UNK         0.0786 
    103 H103       23.4971   -1.9294    1.1914 H         1 UNK         0.0786 
    104 H104       26.2626   -0.6190    0.1529 H         1 UNK         0.2977 
    105 H105       27.5529   -1.9342   -5.7561 H         1 UNK         0.3127 
    106 H106       29.9773   -0.8492   -6.4017 H         1 UNK         0.0770 
    107 H107       29.7203    0.4301   -4.2493 H         1 UNK         0.0814 
    108 H108       29.1818   -1.2304   -4.0985 H         1 UNK         0.0814 
    109 H109       27.9996    0.0680   -4.2622 H         1 UNK         0.0814 
    110 H110       26.8518    0.9067   -6.6869 H         1 UNK         0.2983 
    111 H111       28.1007    3.4437   -7.3022 H         1 UNK         0.0947 
    112 H112       25.7796    4.1401   -7.8546 H         1 UNK         0.0806 
    113 H113       25.8235    3.2897   -6.3183 H         1 UNK         0.0806 
    114 H114       25.2311    2.4719   -7.7637 H         1 UNK         0.0806 
    115 H115       27.1742    0.6498   -9.2378 H         1 UNK         0.3000 
    116 H116       27.3769    2.0845  -11.8120 H         1 UNK         0.0850 
    117 H117       25.6484    0.3143  -11.5553 H         1 UNK         0.0810 
    118 H118       26.8912   -0.8796  -11.1837 H         1 UNK         0.0810 
    119 H119       26.8266   -0.1391  -12.7762 H         1 UNK         0.0810 
    120 H120       29.1326   -0.3587   -9.8862 H         1 UNK         0.3040 
    121 H121       31.3603   -0.6600  -11.6763 H         1 UNK         0.0766 
    122 H122       32.3392   -1.8722   -9.6836 H         1 UNK         0.0812 
    123 H123       30.7151   -2.4192  -10.0743 H         1 UNK         0.0812 
    124 H124       30.9731   -1.3355   -8.7133 H         1 UNK         0.0812 
    125 H125       30.5643    1.8127   -9.4404 H         1 UNK         0.3205 
    126 H126       31.4700    3.7005   -8.7609 H         1 UNK         0.0754 
    127 H127       33.2927    4.7926  -10.0093 H         1 UNK         0.0769 
    128 H128       32.1604    4.0626  -11.1362 H         1 UNK         0.0769 
    129 H129       33.7103    3.2874  -10.8119 H         1 UNK         0.0769 
    130 H130       31.7449    1.7031   -7.1081 H         1 UNK         0.2981 
    131 H131       34.2951    2.2500   -5.7225 H         1 UNK         0.0541 
    132 H132       31.0776    2.7624   -5.4396 H         1 UNK         0.3459 
    133 H133       30.9896    2.6401   -3.7007 H         1 UNK         0.3459 
    134 H134       34.5507   -0.1419   -5.0606 H         1 UNK         0.0612 
    135 H135       34.7801    0.1484   -6.7542 H         1 UNK         0.0612 
    136 H136       33.4294   -2.2270   -4.3701 H         1 UNK         0.0624 
    137 H137       32.0820   -1.1364   -4.1263 H         1 UNK         0.0624 
@<TRIPOS>BOND
     1    1    2 1    
     2    1   72 1    
     3    1   73 1    
     4    1   74 1    
     5    2    3 2    
     6    2    4 am   BACKBONE|DICT|INTERRES
     7    4    5 1    
     8    4   75 1    
     9    5    6 1    
    10    5   35 1    
    11    5   76 1    
    12    6    7 1    
    13    6   77 1    
    14    6   78 1    
    15    7    8 1    
    16    8    9 1    
    17    8   79 1    
    18    8   80 1    
    19    9   10 ar   
    20    9   14 ar   
    21   10   11 ar   
    22   10   81 1    
    23   11   12 ar   
    24   11   71 1    
    25   12   13 ar   
    26   12   82 1    
    27   13   14 ar   
    28   13   15 1    
    29   14   83 1    
    30   15   16 1    
    31   15   84 1    
    32   15   85 1    
    33   16   17 1    
    34   17   18 1    
    35   17   86 1    
    36   17   87 1    
    37   18   19 1    
    38   18   37 1    
    39   18   88 1    
    40   19   20 am   BACKBONE|DICT|INTERRES
    41   19   89 1    
    42   20   21 2    
    43   20   22 1    
    44   22   23 1    
    45   22   24 1    
    46   22   90 1    
    47   23   91 1    
    48   23   92 1    
    49   23   93 1    
    50   24   25 am   BACKBONE|DICT|INTERRES
    51   24   94 1    
    52   25   26 2    
    53   25   27 1    
    54   27   28 1    
    55   27   29 1    
    56   27   95 1    
    57   28   96 1    
    58   28   97 1    
    59   28   98 1    
    60   29   30 am   BACKBONE|DICT|INTERRES
    61   29   99 1    
    62   30   31 2    
    63   30   32 1    
    64   32   33 1    
    65   32   34 1    
    66   32  100 1    
    67   33  101 1    
    68   33  102 1    
    69   33  103 1    
    70   34   35 am   BACKBONE|DICT|INTERRES
    71   34  104 1    
    72   35   36 2    
    73   37   38 2    
    74   37   39 am   BACKBONE|DICT|INTERRES
    75   39   40 1    
    76   39  105 1    
    77   40   41 1    
    78   40   42 1    
    79   40  106 1    
    80   41  107 1    
    81   41  108 1    
    82   41  109 1    
    83   42   43 2    
    84   42   44 am   BACKBONE|DICT|INTERRES
    85   44   45 1    
    86   44  110 1    
    87   45   46 1    
    88   45   47 1    
    89   45  111 1    
    90   46  112 1    
    91   46  113 1    
    92   46  114 1    
    93   47   48 2    
    94   47   49 am   BACKBONE|DICT|INTERRES
    95   49   50 1    
    96   49  115 1    
    97   50   51 1    
    98   50   52 1    
    99   50  116 1    
   100   51  117 1    
   101   51  118 1    
   102   51  119 1    
   103   52   53 2    
   104   52   54 am   BACKBONE|DICT|INTERRES
   105   54   55 1    
   106   54  120 1    
   107   55   56 1    
   108   55   57 1    
   109   55  121 1    
   110   56  122 1    
   111   56  123 1    
   112   56  124 1    
   113   57   58 2    
   114   57   59 am   BACKBONE|DICT|INTERRES
   115   59   60 1    
   116   59  125 1    
   117   60   61 1    
   118   60   62 1    
   119   60  126 1    
   120   61  127 1    
   121   61  128 1    
   122   61  129 1    
   123   62   63 2    
   124   62   64 am   BACKBONE|DICT|INTERRES
   125   64   65 1    
   126   64  130 1    
   127   65   66 1    
   128   65   69 1    
   129   65  131 1    
   130   66   67 am   BACKBONE|DICT|INTERRES
   131   66   68 2    
   132   67  132 1    
   133   67  133 1    
   134   69   70 1    
   135   69  134 1    
   136   69  135 1    
   137   70   71 1    
   138   71  136 1    
   139   71  137 1    
@<TRIPOS>SUBSTRUCTURE
     1 UNK         1 GROUP             0       ****    0 ROOT    
