@<TRIPOS>MOLECULE
3R137
137   139    1
SMALL
USER_CHARGES


@<TRIPOS>ATOM
      1 CA         23.7700   -6.0041   -1.1259 C.3       0 UNK        -0.2020 
      2 C          25.0067   -5.1353   -1.3027 C.2       0 UNK         0.4855 
      3 O          25.3294   -4.7614   -2.4295 O.2       0 UNK        -0.5197 
      4 N          25.6980   -4.8231   -0.1977 N.am      1 UNK        -0.4892 
      5 CA         26.8798   -3.9534   -0.1286 C.3       1 UNK         0.0835 
      6 C6         28.0898   -4.5152   -0.9319 C.3       12 UNK        -0.0855 
      7 S7         29.6946   -3.9984   -0.2304 S.3       12 UNK        -0.2931 
      8 C8         30.8652   -4.7327   -1.4144 C.3       12 UNK         0.0378 
      9 C9         30.8318   -4.0213   -2.7590 C.ar      12 UNK        -0.0802 
     10 C10        31.5251   -2.8185   -2.9372 C.ar      12 UNK        -0.0944 
     11 C11        31.5153   -2.1618   -4.1725 C.ar      12 UNK        -0.0787 
     12 C12        30.7697   -2.7169   -5.2208 C.ar      12 UNK        -0.0862 
     13 C13        30.0890   -3.9269   -5.0662 C.ar      12 UNK        -0.0733 
     14 C14        30.1280   -4.5782   -3.8313 C.ar      12 UNK        -0.0832 
     15 C15        29.3609   -4.5434   -6.2564 C.3       12 UNK         0.0240 
     16 S16        27.5999   -4.9071   -5.9507 S.3       12 UNK        -0.2522 
     17 C17        26.9325   -3.3129   -5.3723 C.3       12 UNK        -0.0967 
     18 CA         26.6548   -2.2962   -6.5148 C.3       5 UNK         0.0660 
     19 N          25.4281   -1.5284   -6.2804 N.am      5 UNK        -0.4015 
     20 C          24.8533   -0.7107   -7.1757 C.2       4 UNK         0.4946 
     21 O          25.2657   -0.5546   -8.3239 O.2       4 UNK        -0.5353 
     22 CA         23.6284    0.0983   -6.7169 C.3       4 UNK         0.0277 
     23 CB         22.3320   -0.6511   -7.0627 C.3       4 UNK        -0.1981 
     24 N          23.6349    0.4279   -5.2907 N.am      4 UNK        -0.4209 
     25 C          24.5481    1.1912   -4.6736 C.2       3 UNK         0.4942 
     26 O          25.4989    1.7201   -5.2529 O.2       3 UNK        -0.5208 
     27 CA         24.3844    1.3848   -3.1506 C.3       3 UNK         0.0250 
     28 CB         23.1589    0.6558   -2.5522 C.3       3 UNK        -0.1990 
     29 N          25.5791    1.0241   -2.3758 N.am      3 UNK        -0.4232 
     30 C          26.3157   -0.0939   -2.4714 C.2       2 UNK         0.4993 
     31 O          26.1900   -0.9284   -3.3708 O.2       2 UNK        -0.5286 
     32 CA         27.3995   -0.3159   -1.3946 C.3       2 UNK         0.0209 
     33 CB         27.2673    0.6013   -0.1565 C.3       2 UNK        -0.1931 
     34 N          27.4863   -1.7224   -0.9863 N.am      2 UNK        -0.4546 
     35 C          26.5209   -2.4789   -0.4429 C.2       1 UNK         0.5154 
     36 O          25.4003   -2.0523   -0.1477 O.2       1 UNK        -0.5181 
     37 C          27.8444   -1.3419   -6.7216 C.2       5 UNK         0.5014 
     38 O          28.5428   -1.4332   -7.7330 O.2       5 UNK        -0.5248 
     39 N          28.0134   -0.4119   -5.7710 N.am      6 UNK        -0.4434 
     40 CA         29.0343    0.6353   -5.7982 C.3       6 UNK         0.0363 
     41 CB         29.0329    1.3912   -4.4627 C.3       6 UNK        -0.1936 
     42 C          28.8791    1.6024   -6.9795 C.2       6 UNK         0.5081 
     43 O          29.8894    2.0143   -7.5500 O.2       6 UNK        -0.5248 
     44 N          27.6309    1.9282   -7.3410 N.am      7 UNK        -0.4718 
     45 CA         27.3032    2.7385   -8.5144 C.3       7 UNK         0.0273 
     46 CB         25.8169    3.1269   -8.4825 C.3       7 UNK        -0.1935 
     47 C          27.6593    2.0348   -9.8351 C.2       7 UNK         0.5018 
     48 O          28.2773    2.6595  -10.6972 O.2       7 UNK        -0.5186 
     49 N          27.2829    0.7534   -9.9659 N.am      8 UNK        -0.4240 
     50 CA         27.5418   -0.0702  -11.1504 C.3       8 UNK         0.0235 
     51 CB         26.7388   -1.3782  -11.0633 C.3       8 UNK        -0.2000 
     52 C          29.0333   -0.3679  -11.3657 C.2       8 UNK         0.4941 
     53 O          29.5151   -0.2496  -12.4930 O.2       8 UNK        -0.5273 
     54 N          29.7375   -0.7414  -10.2887 N.am      9 UNK        -0.4262 
     55 CA         31.1716   -1.0465  -10.3121 C.3       9 UNK         0.0264 
     56 CB         31.4991   -1.9556   -9.1214 C.3       9 UNK        -0.1955 
     57 C          32.0719    0.2043  -10.3065 C.2       9 UNK         0.5031 
     58 O          33.2681    0.0750  -10.5691 O.2       9 UNK        -0.5390 
     59 N          31.4955    1.3754   -9.9984 N.am      10 UNK        -0.4204 
     60 CA         32.1165    2.7043   -9.9154 C.3       10 UNK         0.0237 
     61 CB         32.7550    3.1173  -11.2590 C.3       10 UNK        -0.1985 
     62 C          33.0719    2.8981   -8.7192 C.2       10 UNK         0.4970 
     63 O          33.7681    3.9137   -8.6697 O.2       10 UNK        -0.4914 
     64 N          33.0673    1.9633   -7.7604 N.am      11 UNK        -0.4285 
     65 CA         33.7400    2.0836   -6.4558 C.3       11 UNK         0.1007 
     66 C          32.9745    2.9578   -5.4213 C.2       11 UNK         0.5703 
     67 N          31.7492    3.3913   -5.6895 N.am      11 UNK        -0.7361 
     68 O          33.5173    3.2753   -4.3657 O.2       11 UNK        -0.4986 
     69 C69        34.1790    0.7083   -5.8750 C.3       12 UNK        -0.0947 
     70 S70        32.9549   -0.6332   -6.0459 S.3       12 UNK        -0.2240 
     71 C71        32.3239   -0.8709   -4.3482 C.3       12 UNK         0.0194 
     72 H72        23.6067   -6.2772   -0.0836 H         1 UNK         0.0906 
     73 H73        22.8865   -5.4734   -1.4798 H         1 UNK         0.0906 
     74 H74        23.8708   -6.9217   -1.7049 H         1 UNK         0.0906 
     75 H75        25.3525   -5.1399    0.6979 H         1 UNK         0.3140 
     76 H76        27.1558   -3.9549    0.9273 H         1 UNK         0.1085 
     77 H77        28.0225   -4.2406   -1.9863 H         1 UNK         0.0836 
     78 H78        28.0732   -5.6062   -0.9108 H         1 UNK         0.0836 
     79 H79        31.8716   -4.6729   -0.9975 H         1 UNK         0.0731 
     80 H80        30.6482   -5.7958   -1.5308 H         1 UNK         0.0731 
     81 H81        32.0828   -2.3992   -2.1105 H         1 UNK         0.1312 
     82 H82        30.7326   -2.2201   -6.1769 H         1 UNK         0.1406 
     83 H83        29.6055   -5.5173   -3.7071 H         1 UNK         0.1631 
     84 H84        29.8626   -5.4742   -6.5238 H         1 UNK         0.0717 
     85 H85        29.4367   -3.9024   -7.1354 H         1 UNK         0.0717 
     86 H86        27.5708   -2.9051   -4.5857 H         1 UNK         0.0934 
     87 H87        25.9997   -3.5588   -4.8619 H         1 UNK         0.0934 
     88 H88        26.5046   -2.8432   -7.4483 H         1 UNK         0.0739 
     89 H89        25.0746   -1.5344   -5.3325 H         1 UNK         0.3093 
     90 H90        23.6322    1.0397   -7.2688 H         1 UNK         0.0818 
     91 H91        21.4516   -0.0509   -6.8321 H         1 UNK         0.0819 
     92 H92        22.2906   -0.8861   -8.1274 H         1 UNK         0.0819 
     93 H93        22.2504   -1.5929   -6.5183 H         1 UNK         0.0819 
     94 H94        22.8931    0.0326   -4.7310 H         1 UNK         0.3041 
     95 H95        24.2354    2.4557   -3.0046 H         1 UNK         0.0784 
     96 H96        22.2293    0.9697   -3.0291 H         1 UNK         0.0793 
     97 H97        23.2426   -0.4282   -2.6457 H         1 UNK         0.0793 
     98 H98        23.0548    0.8801   -1.4903 H         1 UNK         0.0793 
     99 H99        25.8129    1.6653   -1.6313 H         1 UNK         0.3024 
    100 H100       28.3534   -0.0893   -1.8672 H         1 UNK         0.1171 
    101 H101       28.0353    0.3721    0.5826 H         1 UNK         0.0786 
    102 H102       26.2986    0.4923    0.3331 H         1 UNK         0.0786 
    103 H103       27.3930    1.6517   -0.4215 H         1 UNK         0.0786 
    104 H104       28.3683   -2.1806   -1.1787 H         1 UNK         0.2977 
    105 H105       27.3664   -0.4106   -4.9888 H         1 UNK         0.3127 
    106 H106       30.0036    0.1501   -5.9158 H         1 UNK         0.0770 
    107 H107       28.0425    1.7712   -4.2111 H         1 UNK         0.0814 
    108 H108       29.7055    2.2462   -4.4857 H         1 UNK         0.0814 
    109 H109       29.3744    0.7471   -3.6558 H         1 UNK         0.0814 
    110 H110       26.8590    1.6088   -6.7635 H         1 UNK         0.2983 
    111 H111       27.8938    3.6557   -8.4578 H         1 UNK         0.0947 
    112 H112       25.5749    3.8030   -9.3035 H         1 UNK         0.0806 
    113 H113       25.5582    3.6364   -7.5539 H         1 UNK         0.0806 
    114 H114       25.1700    2.2556   -8.5789 H         1 UNK         0.0806 
    115 H115       26.7424    0.3180   -9.2219 H         1 UNK         0.3000 
    116 H116       27.1885    0.4844  -12.0224 H         1 UNK         0.0850 
    117 H117       26.9203   -2.0096  -11.9342 H         1 UNK         0.0810 
    118 H118       25.6673   -1.1818  -11.0234 H         1 UNK         0.0810 
    119 H119       27.0043   -1.9564  -10.1770 H         1 UNK         0.0810 
    120 H120       29.2559   -0.8622   -9.3986 H         1 UNK         0.3040 
    121 H121       31.3967   -1.5990  -11.2269 H         1 UNK         0.0766 
    122 H122       32.5609   -2.2038   -9.0871 H         1 UNK         0.0812 
    123 H123       31.2441   -1.4636   -8.1860 H         1 UNK         0.0812 
    124 H124       30.9441   -2.8925   -9.1696 H         1 UNK         0.0812 
    125 H125       30.5163    1.3552   -9.7417 H         1 UNK         0.3205 
    126 H126       31.2873    3.3894   -9.7316 H         1 UNK         0.0754 
    127 H127       33.0504    4.1671  -11.2459 H         1 UNK         0.0769 
    128 H128       32.0553    2.9903  -12.0852 H         1 UNK         0.0769 
    129 H129       33.6487    2.5339  -11.4814 H         1 UNK         0.0769 
    130 H130       32.4434    1.1762   -7.8588 H         1 UNK         0.2981 
    131 H131       34.6657    2.6357   -6.6289 H         1 UNK         0.0541 
    132 H132       31.2638    3.0839   -6.5243 H         1 UNK         0.3459 
    133 H133       31.2837    3.9847   -5.0227 H         1 UNK         0.3459 
    134 H134       35.0672    0.3760   -6.4143 H         1 UNK         0.0612 
    135 H135       34.4967    0.7925   -4.8342 H         1 UNK         0.0612 
    136 H136       33.1751   -0.8808   -3.6658 H         1 UNK         0.0624 
    137 H137       31.7086   -0.0152   -4.0707 H         1 UNK         0.0624 
@<TRIPOS>BOND
     1    1    2 1    
     2    1   72 1    
     3    1   73 1    
     4    1   74 1    
     5    2    3 2    
     6    2    4 am   BACKBONE|DICT|INTERRES
     7    4    5 1    
     8    4   75 1    
     9    5    6 1    
    10    5   35 1    
    11    5   76 1    
    12    6    7 1    
    13    6   77 1    
    14    6   78 1    
    15    7    8 1    
    16    8    9 1    
    17    8   79 1    
    18    8   80 1    
    19    9   10 ar   
    20    9   14 ar   
    21   10   11 ar   
    22   10   81 1    
    23   11   12 ar   
    24   11   71 1    
    25   12   13 ar   
    26   12   82 1    
    27   13   14 ar   
    28   13   15 1    
    29   14   83 1    
    30   15   16 1    
    31   15   84 1    
    32   15   85 1    
    33   16   17 1    
    34   17   18 1    
    35   17   86 1    
    36   17   87 1    
    37   18   19 1    
    38   18   37 1    
    39   18   88 1    
    40   19   20 am   BACKBONE|DICT|INTERRES
    41   19   89 1    
    42   20   21 2    
    43   20   22 1    
    44   22   23 1    
    45   22   24 1    
    46   22   90 1    
    47   23   91 1    
    48   23   92 1    
    49   23   93 1    
    50   24   25 am   BACKBONE|DICT|INTERRES
    51   24   94 1    
    52   25   26 2    
    53   25   27 1    
    54   27   28 1    
    55   27   29 1    
    56   27   95 1    
    57   28   96 1    
    58   28   97 1    
    59   28   98 1    
    60   29   30 am   BACKBONE|DICT|INTERRES
    61   29   99 1    
    62   30   31 2    
    63   30   32 1    
    64   32   33 1    
    65   32   34 1    
    66   32  100 1    
    67   33  101 1    
    68   33  102 1    
    69   33  103 1    
    70   34   35 am   BACKBONE|DICT|INTERRES
    71   34  104 1    
    72   35   36 2    
    73   37   38 2    
    74   37   39 am   BACKBONE|DICT|INTERRES
    75   39   40 1    
    76   39  105 1    
    77   40   41 1    
    78   40   42 1    
    79   40  106 1    
    80   41  107 1    
    81   41  108 1    
    82   41  109 1    
    83   42   43 2    
    84   42   44 am   BACKBONE|DICT|INTERRES
    85   44   45 1    
    86   44  110 1    
    87   45   46 1    
    88   45   47 1    
    89   45  111 1    
    90   46  112 1    
    91   46  113 1    
    92   46  114 1    
    93   47   48 2    
    94   47   49 am   BACKBONE|DICT|INTERRES
    95   49   50 1    
    96   49  115 1    
    97   50   51 1    
    98   50   52 1    
    99   50  116 1    
   100   51  117 1    
   101   51  118 1    
   102   51  119 1    
   103   52   53 2    
   104   52   54 am   BACKBONE|DICT|INTERRES
   105   54   55 1    
   106   54  120 1    
   107   55   56 1    
   108   55   57 1    
   109   55  121 1    
   110   56  122 1    
   111   56  123 1    
   112   56  124 1    
   113   57   58 2    
   114   57   59 am   BACKBONE|DICT|INTERRES
   115   59   60 1    
   116   59  125 1    
   117   60   61 1    
   118   60   62 1    
   119   60  126 1    
   120   61  127 1    
   121   61  128 1    
   122   61  129 1    
   123   62   63 2    
   124   62   64 am   BACKBONE|DICT|INTERRES
   125   64   65 1    
   126   64  130 1    
   127   65   66 1    
   128   65   69 1    
   129   65  131 1    
   130   66   67 am   BACKBONE|DICT|INTERRES
   131   66   68 2    
   132   67  132 1    
   133   67  133 1    
   134   69   70 1    
   135   69  134 1    
   136   69  135 1    
   137   70   71 1    
   138   71  136 1    
   139   71  137 1    
@<TRIPOS>SUBSTRUCTURE
     1 UNK         1 GROUP             0       ****    0 ROOT    
