@<TRIPOS>MOLECULE
3R137
137   139    1
SMALL
USER_CHARGES


@<TRIPOS>ATOM
      1 CA         23.7238   -0.2612    0.1263 C.3       0 UNK        -0.2020 
      2 C          25.2099   -0.2800   -0.1966 C.2       0 UNK         0.4855 
      3 O          25.7659    0.7460   -0.5900 O.2       0 UNK        -0.5197 
      4 N          25.8641   -1.4384   -0.0401 N.am      1 UNK        -0.4892 
      5 CA         27.2707   -1.6423   -0.3996 C.3       1 UNK         0.0835 
      6 C6         27.8217   -2.9624    0.1926 C.3       12 UNK        -0.0855 
      7 S7         29.6429   -2.9616    0.3416 S.3       12 UNK        -0.2931 
      8 C8         30.1116   -4.5093   -0.4997 C.3       12 UNK         0.0378 
      9 C9         30.1291   -4.3490   -2.0124 C.ar      12 UNK        -0.0802 
     10 C10        31.3024   -3.9591   -2.6677 C.ar      12 UNK        -0.0944 
     11 C11        31.3181   -3.8024   -4.0569 C.ar      12 UNK        -0.0787 
     12 C12        30.1458   -4.0142   -4.7860 C.ar      12 UNK        -0.0862 
     13 C13        28.9700   -4.4134   -4.1441 C.ar      12 UNK        -0.0733 
     14 C14        28.9740   -4.5957   -2.7596 C.ar      12 UNK        -0.0832 
     15 C15        27.6791   -4.5885   -4.9288 C.3       12 UNK         0.0240 
     16 S16        27.8780   -5.6802   -6.3733 S.3       12 UNK        -0.2522 
     17 C17        26.1995   -5.7096   -7.1073 C.3       12 UNK        -0.0967 
     18 CA         25.6022   -4.3519   -7.5754 C.3       5 UNK         0.0660 
     19 N          25.0382   -3.5958   -6.4498 N.am      5 UNK        -0.4015 
     20 C          24.3621   -2.4417   -6.5102 C.2       4 UNK         0.4946 
     21 O          24.2416   -1.7755   -7.5383 O.2       4 UNK        -0.5353 
     22 CA         23.7003   -1.9561   -5.2057 C.3       4 UNK         0.0277 
     23 CB         23.5421   -3.0531   -4.1316 C.3       4 UNK        -0.1981 
     24 N          24.4648   -0.8490   -4.6409 N.am      4 UNK        -0.4209 
     25 C          24.3529    0.4325   -5.0193 C.2       3 UNK         0.4942 
     26 O          23.5064    0.8456   -5.8124 O.2       3 UNK        -0.5208 
     27 CA         25.3493    1.4382   -4.4146 C.3       3 UNK         0.0250 
     28 CB         24.6628    2.3077   -3.3501 C.3       3 UNK        -0.1990 
     29 N          26.5574    0.8256   -3.8507 N.am      3 UNK        -0.4232 
     30 C          27.4830    0.1652   -4.5648 C.2       2 UNK         0.4993 
     31 O          27.4251    0.0326   -5.7867 O.2       2 UNK        -0.5286 
     32 CA         28.6610   -0.4707   -3.8053 C.3       2 UNK         0.0209 
     33 CB         29.9038    0.4248   -3.9231 C.3       2 UNK        -0.1931 
     34 N          28.3930   -0.7425   -2.3891 N.am      2 UNK        -0.4546 
     35 C          27.4332   -1.5582   -1.9317 C.2       1 UNK         0.5154 
     36 O          26.6608   -2.1849   -2.6641 O.2       1 UNK        -0.5181 
     37 C          26.5556   -3.5743   -8.5146 C.2       5 UNK         0.5014 
     38 O          26.6055   -3.8987   -9.7025 O.2       5 UNK        -0.5248 
     39 N          27.2862   -2.5806   -7.9873 N.am      6 UNK        -0.4434 
     40 CA         28.2311   -1.7566   -8.7468 C.3       6 UNK         0.0363 
     41 CB         29.5400   -1.6095   -7.9475 C.3       6 UNK        -0.1936 
     42 C          27.6489   -0.3852   -9.1311 C.2       6 UNK         0.5081 
     43 O          28.3756    0.4187   -9.7146 O.2       6 UNK        -0.5248 
     44 N          26.3762   -0.1167   -8.7933 N.am      7 UNK        -0.4718 
     45 CA         25.6245    1.1159   -9.0755 C.3       7 UNK         0.0273 
     46 CB         25.2549    1.1741  -10.5724 C.3       7 UNK        -0.1935 
     47 C          26.3183    2.4077   -8.5890 C.2       7 UNK         0.5018 
     48 O          26.1736    3.4559   -9.2202 O.2       7 UNK        -0.5186 
     49 N          27.0771    2.2955   -7.4887 N.am      8 UNK        -0.4240 
     50 CA         27.9128    3.3209   -6.8546 C.3       8 UNK         0.0235 
     51 CB         27.0762    4.5380   -6.4001 C.3       8 UNK        -0.2000 
     52 C          29.1425    3.7455   -7.6818 C.2       8 UNK         0.4941 
     53 O          29.7911    4.7257   -7.3120 O.2       8 UNK        -0.5273 
     54 N          29.5028    3.0060   -8.7433 N.am      9 UNK        -0.4262 
     55 CA         30.6344    3.3058   -9.6336 C.3       9 UNK         0.0264 
     56 CB         30.3869    2.6496  -11.0046 C.3       9 UNK        -0.1955 
     57 C          32.0066    2.9204   -9.0375 C.2       9 UNK         0.5031 
     58 O          32.8458    2.3553   -9.7425 O.2       9 UNK        -0.5390 
     59 N          32.2046    3.2140   -7.7434 N.am      10 UNK        -0.4204 
     60 CA         33.4212    3.0287   -6.9373 C.3       10 UNK         0.0237 
     61 CB         34.4689    4.0909   -7.3328 C.3       10 UNK        -0.1985 
     62 C          34.0087    1.5995   -6.9524 C.2       10 UNK         0.4970 
     63 O          35.2158    1.4432   -6.7586 O.2       10 UNK        -0.4914 
     64 N          33.1580    0.5919   -7.1990 N.am      11 UNK        -0.4285 
     65 CA         33.5317   -0.8158   -7.4290 C.3       11 UNK         0.1007 
     66 C          34.4013   -1.0457   -8.7060 C.2       11 UNK         0.5703 
     67 N          34.4031   -0.1398   -9.6783 N.am      11 UNK        -0.7361 
     68 O          35.0582   -2.0755   -8.8415 O.2       11 UNK        -0.4986 
     69 C69        34.1017   -1.5061   -6.1543 C.3       12 UNK        -0.0947 
     70 S70        32.8425   -1.6293   -4.8404 S.3       12 UNK        -0.2240 
     71 C71        32.6002   -3.4291   -4.7822 C.3       12 UNK         0.0194 
     72 H72        23.1498   -0.0206   -0.7681 H         1 UNK         0.0906 
     73 H73        23.3761   -1.2221    0.5049 H         1 UNK         0.0906 
     74 H74        23.5137    0.4966    0.8806 H         1 UNK         0.0906 
     75 H75        25.3574   -2.2619    0.2522 H         1 UNK         0.3140 
     76 H76        27.8266   -0.8166    0.0514 H         1 UNK         0.1085 
     77 H77        27.4670   -3.8278   -0.3673 H         1 UNK         0.0836 
     78 H78        27.4366   -3.0974    1.2048 H         1 UNK         0.0836 
     79 H79        29.4358   -5.3138   -0.2049 H         1 UNK         0.0731 
     80 H80        31.1018   -4.8077   -0.1520 H         1 UNK         0.0731 
     81 H81        32.2039   -3.7788   -2.0979 H         1 UNK         0.1312 
     82 H82        30.1493   -3.8760   -5.8576 H         1 UNK         0.1406 
     83 H83        28.0651   -4.9015   -2.2614 H         1 UNK         0.1631 
     84 H84        27.3675   -3.5961   -5.2498 H         1 UNK         0.0717 
     85 H85        26.8860   -4.9823   -4.2914 H         1 UNK         0.0717 
     86 H86        26.2495   -6.3830   -7.9652 H         1 UNK         0.0934 
     87 H87        25.5226   -6.2020   -6.4071 H         1 UNK         0.0934 
     88 H88        24.7361   -4.5961   -8.1946 H         1 UNK         0.0739 
     89 H89        25.0646   -4.0622   -5.5561 H         1 UNK         0.3093 
     90 H90        22.6995   -1.6065   -5.4688 H         1 UNK         0.0818 
     91 H91        22.9871   -3.9093   -4.5179 H         1 UNK         0.0819 
     92 H92        24.5003   -3.4132   -3.7554 H         1 UNK         0.0819 
     93 H93        22.9823   -2.6759   -3.2753 H         1 UNK         0.0819 
     94 H94        25.2025   -1.0962   -3.9918 H         1 UNK         0.3041 
     95 H95        25.6622    2.0932   -5.2250 H         1 UNK         0.0784 
     96 H96        23.8343    2.8695   -3.7837 H         1 UNK         0.0793 
     97 H97        24.2533    1.7053   -2.5394 H         1 UNK         0.0793 
     98 H98        25.3533    3.0322   -2.9180 H         1 UNK         0.0793 
     99 H99        26.6634    0.8755   -2.8453 H         1 UNK         0.3024 
    100 H100       28.8770   -1.4263   -4.2868 H         1 UNK         0.1171 
    101 H101       30.7613   -0.0205   -3.4189 H         1 UNK         0.0786 
    102 H102       30.1837    0.5693   -4.9677 H         1 UNK         0.0786 
    103 H103       29.7354    1.4112   -3.4891 H         1 UNK         0.0786 
    104 H104       28.9839   -0.2673   -1.7218 H         1 UNK         0.2977 
    105 H105       27.1553   -2.3314   -7.0176 H         1 UNK         0.3127 
    106 H106       28.4848   -2.2490   -9.6877 H         1 UNK         0.0770 
    107 H107       29.3788   -1.1649   -6.9666 H         1 UNK         0.0814 
    108 H108       30.2541   -0.9780   -8.4772 H         1 UNK         0.0814 
    109 H109       30.0193   -2.5769   -7.8034 H         1 UNK         0.0814 
    110 H110       25.8458   -0.8329   -8.3052 H         1 UNK         0.2983 
    111 H111       24.6968    1.0411   -8.5052 H         1 UNK         0.0947 
    112 H112       24.5871    2.0109  -10.7812 H         1 UNK         0.0806 
    113 H113       24.7413    0.2664  -10.8889 H         1 UNK         0.0806 
    114 H114       26.1385    1.2968  -11.1999 H         1 UNK         0.0806 
    115 H115       27.1396    1.3729   -7.0595 H         1 UNK         0.3000 
    116 H116       28.3148    2.8515   -5.9558 H         1 UNK         0.0850 
    117 H117       27.6674    5.2039   -5.7703 H         1 UNK         0.0810 
    118 H118       26.2051    4.2408   -5.8185 H         1 UNK         0.0810 
    119 H119       26.7257    5.1279   -7.2474 H         1 UNK         0.0810 
    120 H120       28.9584    2.1800   -8.9798 H         1 UNK         0.3040 
    121 H121       30.6606    4.3856   -9.7945 H         1 UNK         0.0766 
    122 H122       29.4111    2.9220  -11.4072 H         1 UNK         0.0812 
    123 H123       30.4328    1.5618  -10.9437 H         1 UNK         0.0812 
    124 H124       31.1367    2.9655  -11.7311 H         1 UNK         0.0812 
    125 H125       31.4442    3.7120   -7.2871 H         1 UNK         0.3205 
    126 H126       33.1309    3.2189   -5.9031 H         1 UNK         0.0754 
    127 H127       35.3286    4.0698   -6.6618 H         1 UNK         0.0769 
    128 H128       34.0515    5.0967   -7.2858 H         1 UNK         0.0769 
    129 H129       34.8402    3.9293   -8.3457 H         1 UNK         0.0769 
    130 H130       32.1889    0.8193   -7.3582 H         1 UNK         0.2981 
    131 H131       32.5976   -1.3236   -7.6690 H         1 UNK         0.0541 
    132 H132       33.8568    0.7144   -9.6049 H         1 UNK         0.3459 
    133 H133       34.9585   -0.3064  -10.5016 H         1 UNK         0.3459 
    134 H134       34.4651   -2.5095   -6.3809 H         1 UNK         0.0612 
    135 H135       34.9640   -0.9653   -5.7640 H         1 UNK         0.0612 
    136 H136       33.4586   -3.8920   -4.2932 H         1 UNK         0.0624 
    137 H137       32.5728   -3.8256   -5.7986 H         1 UNK         0.0624 
@<TRIPOS>BOND
     1    1    2 1    
     2    1   72 1    
     3    1   73 1    
     4    1   74 1    
     5    2    3 2    
     6    2    4 am   BACKBONE|DICT|INTERRES
     7    4    5 1    
     8    4   75 1    
     9    5    6 1    
    10    5   35 1    
    11    5   76 1    
    12    6    7 1    
    13    6   77 1    
    14    6   78 1    
    15    7    8 1    
    16    8    9 1    
    17    8   79 1    
    18    8   80 1    
    19    9   10 ar   
    20    9   14 ar   
    21   10   11 ar   
    22   10   81 1    
    23   11   12 ar   
    24   11   71 1    
    25   12   13 ar   
    26   12   82 1    
    27   13   14 ar   
    28   13   15 1    
    29   14   83 1    
    30   15   16 1    
    31   15   84 1    
    32   15   85 1    
    33   16   17 1    
    34   17   18 1    
    35   17   86 1    
    36   17   87 1    
    37   18   19 1    
    38   18   37 1    
    39   18   88 1    
    40   19   20 am   BACKBONE|DICT|INTERRES
    41   19   89 1    
    42   20   21 2    
    43   20   22 1    
    44   22   23 1    
    45   22   24 1    
    46   22   90 1    
    47   23   91 1    
    48   23   92 1    
    49   23   93 1    
    50   24   25 am   BACKBONE|DICT|INTERRES
    51   24   94 1    
    52   25   26 2    
    53   25   27 1    
    54   27   28 1    
    55   27   29 1    
    56   27   95 1    
    57   28   96 1    
    58   28   97 1    
    59   28   98 1    
    60   29   30 am   BACKBONE|DICT|INTERRES
    61   29   99 1    
    62   30   31 2    
    63   30   32 1    
    64   32   33 1    
    65   32   34 1    
    66   32  100 1    
    67   33  101 1    
    68   33  102 1    
    69   33  103 1    
    70   34   35 am   BACKBONE|DICT|INTERRES
    71   34  104 1    
    72   35   36 2    
    73   37   38 2    
    74   37   39 am   BACKBONE|DICT|INTERRES
    75   39   40 1    
    76   39  105 1    
    77   40   41 1    
    78   40   42 1    
    79   40  106 1    
    80   41  107 1    
    81   41  108 1    
    82   41  109 1    
    83   42   43 2    
    84   42   44 am   BACKBONE|DICT|INTERRES
    85   44   45 1    
    86   44  110 1    
    87   45   46 1    
    88   45   47 1    
    89   45  111 1    
    90   46  112 1    
    91   46  113 1    
    92   46  114 1    
    93   47   48 2    
    94   47   49 am   BACKBONE|DICT|INTERRES
    95   49   50 1    
    96   49  115 1    
    97   50   51 1    
    98   50   52 1    
    99   50  116 1    
   100   51  117 1    
   101   51  118 1    
   102   51  119 1    
   103   52   53 2    
   104   52   54 am   BACKBONE|DICT|INTERRES
   105   54   55 1    
   106   54  120 1    
   107   55   56 1    
   108   55   57 1    
   109   55  121 1    
   110   56  122 1    
   111   56  123 1    
   112   56  124 1    
   113   57   58 2    
   114   57   59 am   BACKBONE|DICT|INTERRES
   115   59   60 1    
   116   59  125 1    
   117   60   61 1    
   118   60   62 1    
   119   60  126 1    
   120   61  127 1    
   121   61  128 1    
   122   61  129 1    
   123   62   63 2    
   124   62   64 am   BACKBONE|DICT|INTERRES
   125   64   65 1    
   126   64  130 1    
   127   65   66 1    
   128   65   69 1    
   129   65  131 1    
   130   66   67 am   BACKBONE|DICT|INTERRES
   131   66   68 2    
   132   67  132 1    
   133   67  133 1    
   134   69   70 1    
   135   69  134 1    
   136   69  135 1    
   137   70   71 1    
   138   71  136 1    
   139   71  137 1    
@<TRIPOS>SUBSTRUCTURE
     1 UNK         1 GROUP             0       ****    0 ROOT    
