@<TRIPOS>MOLECULE
3R137
137   139    1
SMALL
USER_CHARGES


@<TRIPOS>ATOM
      1 CA         30.0905    1.0267   -2.2893 C.3       0 UNK        -0.2020 
      2 C          29.5244    0.0279   -1.2913 C.2       0 UNK         0.4855 
      3 O          29.1917    0.4102   -0.1696 O.2       0 UNK        -0.5197 
      4 N          29.4118   -1.2444   -1.6974 N.am      1 UNK        -0.4892 
      5 CA         28.8683   -2.3624   -0.9120 C.3       1 UNK         0.0835 
      6 C6         29.7773   -2.7578    0.2861 C.3       12 UNK        -0.0855 
      7 S7         29.6542   -4.5368    0.6857 S.3       12 UNK        -0.2931 
      8 C8         31.0642   -5.2369   -0.2365 C.3       12 UNK         0.0378 
      9 C9         30.9588   -4.9754   -1.7333 C.ar      12 UNK        -0.0802 
     10 C10        31.8547   -4.1007   -2.3590 C.ar      12 UNK        -0.0944 
     11 C11        31.7453   -3.8394   -3.7272 C.ar      12 UNK        -0.0787 
     12 C12        30.7449   -4.4663   -4.4699 C.ar      12 UNK        -0.0862 
     13 C13        29.8119   -5.2993   -3.8494 C.ar      12 UNK        -0.0733 
     14 C14        29.9415   -5.5766   -2.4850 C.ar      12 UNK        -0.0832 
     15 C15        28.6413   -5.8544   -4.6497 C.3       12 UNK         0.0240 
     16 S16        27.1269   -4.8603   -4.4107 S.3       12 UNK        -0.2522 
     17 C17        27.6011   -3.2302   -5.0866 C.3       12 UNK        -0.0967 
     18 CA         26.7527   -2.7858   -6.3012 C.3       5 UNK         0.0660 
     19 N          25.3303   -2.6576   -5.9800 N.am      5 UNK        -0.4015 
     20 C          24.3343   -2.7467   -6.8719 C.2       4 UNK         0.4946 
     21 O          24.5009   -3.0146   -8.0624 O.2       4 UNK        -0.5353 
     22 CA         22.9047   -2.5015   -6.3534 C.3       4 UNK         0.0277 
     23 CB         22.2582   -3.8274   -5.9200 C.3       4 UNK        -0.1981 
     24 N          22.8520   -1.5509   -5.2396 N.am      4 UNK        -0.4209 
     25 C          23.0611   -0.2311   -5.3550 C.2       3 UNK         0.4942 
     26 O          23.2339    0.3433   -6.4295 O.2       3 UNK        -0.5208 
     27 CA         23.1162    0.5839   -4.0472 C.3       3 UNK         0.0250 
     28 CB         21.7329    1.1691   -3.7203 C.3       3 UNK        -0.1990 
     29 N          23.6164   -0.1656   -2.8851 N.am      3 UNK        -0.4232 
     30 C          24.8251   -0.7381   -2.8143 C.2       2 UNK         0.4993 
     31 O          25.6409   -0.7230   -3.7413 O.2       2 UNK        -0.5286 
     32 CA         25.1659   -1.5060   -1.5336 C.3       2 UNK         0.0209 
     33 CB         24.3904   -2.8371   -1.4739 C.3       2 UNK        -0.1931 
     34 N          26.6005   -1.7634   -1.5627 N.am      2 UNK        -0.4546 
     35 C          27.3777   -2.1594   -0.5515 C.2       1 UNK         0.5154 
     36 O          26.9627   -2.3458    0.5944 O.2       1 UNK        -0.5181 
     37 C          27.2910   -1.4532   -6.8518 C.2       5 UNK         0.5014 
     38 O          27.9602   -1.4396   -7.8857 O.2       5 UNK        -0.5248 
     39 N          26.9792   -0.3514   -6.1555 N.am      6 UNK        -0.4434 
     40 CA         27.4049    1.0167   -6.4538 C.3       6 UNK         0.0363 
     41 CB         27.3075    1.8515   -5.1635 C.3       6 UNK        -0.1936 
     42 C          26.6258    1.6474   -7.6260 C.2       6 UNK         0.5081 
     43 O          26.1549    2.7809   -7.5192 O.2       6 UNK        -0.5248 
     44 N          26.5244    0.9129   -8.7409 N.am      7 UNK        -0.4718 
     45 CA         25.9546    1.3771  -10.0096 C.3       7 UNK         0.0273 
     46 CB         25.6805    0.1610  -10.9086 C.3       7 UNK        -0.1935 
     47 C          26.8640    2.3925  -10.7277 C.2       7 UNK         0.5018 
     48 O          26.3781    3.1711  -11.5489 O.2       7 UNK        -0.5186 
     49 N          28.1572    2.3729  -10.3899 N.am      8 UNK        -0.4240 
     50 CA         29.1792    3.3292  -10.7864 C.3       8 UNK         0.0235 
     51 CB         29.8779    2.8409  -12.0677 C.3       8 UNK        -0.2000 
     52 C          30.1717    3.4426   -9.6243 C.2       8 UNK         0.4941 
     53 O          30.2729    2.5150   -8.8137 O.2       8 UNK        -0.5273 
     54 N          30.9254    4.5501   -9.5905 N.am      9 UNK        -0.4262 
     55 CA         31.9355    4.8618   -8.5675 C.3       9 UNK         0.0264 
     56 CB         32.4753    6.2811   -8.8094 C.3       9 UNK        -0.1955 
     57 C          33.0981    3.8524   -8.4785 C.2       9 UNK         0.5031 
     58 O          33.7729    3.7986   -7.4498 O.2       9 UNK        -0.5390 
     59 N          33.2956    3.0592   -9.5400 N.am      10 UNK        -0.4204 
     60 CA         34.2354    1.9400   -9.6049 C.3       10 UNK         0.0237 
     61 CB         34.3993    1.5187  -11.0754 C.3       10 UNK        -0.1985 
     62 C          33.8349    0.7272   -8.7390 C.2       10 UNK         0.4970 
     63 O          34.6801   -0.1459   -8.5396 O.2       10 UNK        -0.4914 
     64 N          32.5817    0.6740   -8.2557 N.am      11 UNK        -0.4285 
     65 CA         32.0263   -0.4214   -7.4386 C.3       11 UNK         0.1007 
     66 C          31.7814   -1.7451   -8.2329 C.2       11 UNK         0.5703 
     67 N          31.7373   -1.7149   -9.5604 N.am      11 UNK        -0.7361 
     68 O          31.6068   -2.8131   -7.6530 O.2       11 UNK        -0.4986 
     69 C69        32.8132   -0.6058   -6.1029 C.3       12 UNK        -0.0947 
     70 S70        31.8078   -1.2838   -4.7408 S.3       12 UNK        -0.2240 
     71 C71        32.6723   -2.8550   -4.4180 C.3       12 UNK         0.0194 
     72 H72        30.0399    0.6524   -3.3110 H         1 UNK         0.0906 
     73 H73        29.5302    1.9605   -2.2487 H         1 UNK         0.0906 
     74 H74        31.1323    1.2431   -2.0547 H         1 UNK         0.0906 
     75 H75        29.7408   -1.4902   -2.6217 H         1 UNK         0.3140 
     76 H76        28.8610   -3.1967   -1.6127 H         1 UNK         0.1085 
     77 H77        29.5429   -2.1671    1.1735 H         1 UNK         0.0836 
     78 H78        30.8206   -2.5340    0.0584 H         1 UNK         0.0836 
     79 H79        31.1016   -6.3132   -0.0628 H         1 UNK         0.0731 
     80 H80        31.9929   -4.8300    0.1668 H         1 UNK         0.0731 
     81 H81        32.6259   -3.6111   -1.7800 H         1 UNK         0.1312 
     82 H82        30.6648   -4.2557   -5.5282 H         1 UNK         0.1406 
     83 H83        29.2245   -6.2236   -1.9973 H         1 UNK         0.1631 
     84 H84        28.4424   -6.8825   -4.3436 H         1 UNK         0.0717 
     85 H85        28.8835   -5.8931   -5.7130 H         1 UNK         0.0717 
     86 H86        27.5382   -2.5045   -4.2760 H         1 UNK         0.0934 
     87 H87        28.6475   -3.2450   -5.3819 H         1 UNK         0.0934 
     88 H88        26.8688   -3.5383   -7.0846 H         1 UNK         0.0739 
     89 H89        25.1144   -2.3812   -5.0325 H         1 UNK         0.3093 
     90 H90        22.3207   -2.0907   -7.1801 H         1 UNK         0.0818 
     91 H91        22.2592   -4.5470   -6.7401 H         1 UNK         0.0819 
     92 H92        22.7910   -4.2852   -5.0853 H         1 UNK         0.0819 
     93 H93        21.2202   -3.6839   -5.6194 H         1 UNK         0.0819 
     94 H94        22.6884   -1.9306   -4.3188 H         1 UNK         0.3041 
     95 H95        23.8047    1.4143   -4.2184 H         1 UNK         0.0784 
     96 H96        21.3477    1.7520   -4.5585 H         1 UNK         0.0793 
     97 H97        21.0034    0.3874   -3.5047 H         1 UNK         0.0793 
     98 H98        21.7767    1.8361   -2.8591 H         1 UNK         0.0793 
     99 H99        22.9971   -0.2304   -2.0893 H         1 UNK         0.3024 
    100 H100       24.9274   -0.8834   -0.6685 H         1 UNK         0.1171 
    101 H101       24.6270   -3.3957   -0.5682 H         1 UNK         0.0786 
    102 H102       23.3128   -2.6703   -1.4709 H         1 UNK         0.0786 
    103 H103       24.6225   -3.4767   -2.3269 H         1 UNK         0.0786 
    104 H104       27.0213   -1.5479   -2.4577 H         1 UNK         0.2977 
    105 H105       26.4107   -0.4591   -5.3157 H         1 UNK         0.3127 
    106 H106       28.4555    0.9900   -6.7519 H         1 UNK         0.0770 
    107 H107       26.2743    1.9518   -4.8290 H         1 UNK         0.0814 
    108 H108       27.7036    2.8565   -5.3148 H         1 UNK         0.0814 
    109 H109       27.8761    1.3980   -4.3525 H         1 UNK         0.0814 
    110 H110       26.9519   -0.0093   -8.7302 H         1 UNK         0.2983 
    111 H111       25.0054    1.8748   -9.7991 H         1 UNK         0.0947 
    112 H112       26.5974   -0.3795  -11.1472 H         1 UNK         0.0806 
    113 H113       25.2263    0.4674  -11.8519 H         1 UNK         0.0806 
    114 H114       24.9939   -0.5383  -10.4303 H         1 UNK         0.0806 
    115 H115       28.4582    1.7333   -9.6648 H         1 UNK         0.3000 
    116 H116       28.7223    4.3067  -10.9566 H         1 UNK         0.0850 
    117 H117       30.6441    3.5455  -12.3934 H         1 UNK         0.0810 
    118 H118       29.1679    2.7362  -12.8883 H         1 UNK         0.0810 
    119 H119       30.3609    1.8739  -11.9204 H         1 UNK         0.0810 
    120 H120       30.7844    5.2510  -10.3048 H         1 UNK         0.3040 
    121 H121       31.4313    4.8486   -7.5988 H         1 UNK         0.0766 
    122 H122       33.2060    6.5569   -8.0474 H         1 UNK         0.0812 
    123 H123       31.6772    7.0228   -8.7706 H         1 UNK         0.0812 
    124 H124       32.9685    6.3662   -9.7786 H         1 UNK         0.0812 
    125 H125       32.6981    3.1951  -10.3417 H         1 UNK         0.3205 
    126 H126       35.2028    2.2905   -9.2388 H         1 UNK         0.0754 
    127 H127       35.1218    0.7070  -11.1725 H         1 UNK         0.0769 
    128 H128       34.7625    2.3450  -11.6871 H         1 UNK         0.0769 
    129 H129       33.4588    1.1703  -11.5043 H         1 UNK         0.0769 
    130 H130       31.9281    1.4176   -8.4805 H         1 UNK         0.2981 
    131 H131       31.0256   -0.0740   -7.1784 H         1 UNK         0.0541 
    132 H132       31.5688   -2.5707  -10.0643 H         1 UNK         0.3459 
    133 H133       31.8631   -0.8494  -10.0580 H         1 UNK         0.3459 
    134 H134       33.7051   -1.2149   -6.2577 H         1 UNK         0.0612 
    135 H135       33.1770    0.3616   -5.7531 H         1 UNK         0.0612 
    136 H136       33.0186   -3.2926   -5.3553 H         1 UNK         0.0624 
    137 H137       33.5609   -2.6618   -3.8154 H         1 UNK         0.0624 
@<TRIPOS>BOND
     1    1    2 1    
     2    1   72 1    
     3    1   73 1    
     4    1   74 1    
     5    2    3 2    
     6    2    4 am   BACKBONE|DICT|INTERRES
     7    4    5 1    
     8    4   75 1    
     9    5    6 1    
    10    5   35 1    
    11    5   76 1    
    12    6    7 1    
    13    6   77 1    
    14    6   78 1    
    15    7    8 1    
    16    8    9 1    
    17    8   79 1    
    18    8   80 1    
    19    9   10 ar   
    20    9   14 ar   
    21   10   11 ar   
    22   10   81 1    
    23   11   12 ar   
    24   11   71 1    
    25   12   13 ar   
    26   12   82 1    
    27   13   14 ar   
    28   13   15 1    
    29   14   83 1    
    30   15   16 1    
    31   15   84 1    
    32   15   85 1    
    33   16   17 1    
    34   17   18 1    
    35   17   86 1    
    36   17   87 1    
    37   18   19 1    
    38   18   37 1    
    39   18   88 1    
    40   19   20 am   BACKBONE|DICT|INTERRES
    41   19   89 1    
    42   20   21 2    
    43   20   22 1    
    44   22   23 1    
    45   22   24 1    
    46   22   90 1    
    47   23   91 1    
    48   23   92 1    
    49   23   93 1    
    50   24   25 am   BACKBONE|DICT|INTERRES
    51   24   94 1    
    52   25   26 2    
    53   25   27 1    
    54   27   28 1    
    55   27   29 1    
    56   27   95 1    
    57   28   96 1    
    58   28   97 1    
    59   28   98 1    
    60   29   30 am   BACKBONE|DICT|INTERRES
    61   29   99 1    
    62   30   31 2    
    63   30   32 1    
    64   32   33 1    
    65   32   34 1    
    66   32  100 1    
    67   33  101 1    
    68   33  102 1    
    69   33  103 1    
    70   34   35 am   BACKBONE|DICT|INTERRES
    71   34  104 1    
    72   35   36 2    
    73   37   38 2    
    74   37   39 am   BACKBONE|DICT|INTERRES
    75   39   40 1    
    76   39  105 1    
    77   40   41 1    
    78   40   42 1    
    79   40  106 1    
    80   41  107 1    
    81   41  108 1    
    82   41  109 1    
    83   42   43 2    
    84   42   44 am   BACKBONE|DICT|INTERRES
    85   44   45 1    
    86   44  110 1    
    87   45   46 1    
    88   45   47 1    
    89   45  111 1    
    90   46  112 1    
    91   46  113 1    
    92   46  114 1    
    93   47   48 2    
    94   47   49 am   BACKBONE|DICT|INTERRES
    95   49   50 1    
    96   49  115 1    
    97   50   51 1    
    98   50   52 1    
    99   50  116 1    
   100   51  117 1    
   101   51  118 1    
   102   51  119 1    
   103   52   53 2    
   104   52   54 am   BACKBONE|DICT|INTERRES
   105   54   55 1    
   106   54  120 1    
   107   55   56 1    
   108   55   57 1    
   109   55  121 1    
   110   56  122 1    
   111   56  123 1    
   112   56  124 1    
   113   57   58 2    
   114   57   59 am   BACKBONE|DICT|INTERRES
   115   59   60 1    
   116   59  125 1    
   117   60   61 1    
   118   60   62 1    
   119   60  126 1    
   120   61  127 1    
   121   61  128 1    
   122   61  129 1    
   123   62   63 2    
   124   62   64 am   BACKBONE|DICT|INTERRES
   125   64   65 1    
   126   64  130 1    
   127   65   66 1    
   128   65   69 1    
   129   65  131 1    
   130   66   67 am   BACKBONE|DICT|INTERRES
   131   66   68 2    
   132   67  132 1    
   133   67  133 1    
   134   69   70 1    
   135   69  134 1    
   136   69  135 1    
   137   70   71 1    
   138   71  136 1    
   139   71  137 1    
@<TRIPOS>SUBSTRUCTURE
     1 UNK         1 GROUP             0       ****    0 ROOT    
