@<TRIPOS>MOLECULE
3R137
137   139    1
SMALL
USER_CHARGES


@<TRIPOS>ATOM
      1 CA         29.8035   -0.4960    2.1145 C.3       0 UNK        -0.2020 
      2 C          29.0971   -1.6699    1.4520 C.2       0 UNK         0.4855 
      3 O          28.4859   -2.4813    2.1481 O.2       0 UNK        -0.5197 
      4 N          29.1913   -1.7612    0.1178 N.am      1 UNK        -0.4892 
      5 CA         28.5516   -2.7604   -0.7512 C.3       1 UNK         0.0835 
      6 C6         28.8673   -4.2272   -0.3321 C.3       12 UNK        -0.0855 
      7 S7         28.9113   -5.4103   -1.7240 S.3       12 UNK        -0.2931 
      8 C8         30.6678   -5.3604   -2.2144 C.3       12 UNK         0.0378 
      9 C9         30.9650   -4.0987   -3.0079 C.ar      12 UNK        -0.0802 
     10 C10        31.5189   -2.9794   -2.3812 C.ar      12 UNK        -0.0944 
     11 C11        31.6787   -1.7818   -3.0835 C.ar      12 UNK        -0.0787 
     12 C12        31.3077   -1.7222   -4.4310 C.ar      12 UNK        -0.0862 
     13 C13        30.8115   -2.8536   -5.0888 C.ar      12 UNK        -0.0733 
     14 C14        30.6426   -4.0397   -4.3659 C.ar      12 UNK        -0.0832 
     15 C15        30.5085   -2.7811   -6.5845 C.3       12 UNK         0.0240 
     16 S16        29.0943   -3.8000   -7.1407 S.3       12 UNK        -0.2522 
     17 C17        27.6716   -2.9890   -6.3381 C.3       12 UNK        -0.0967 
     18 CA         27.0096   -1.9251   -7.2513 C.3       5 UNK         0.0660 
     19 N          25.5872   -1.7320   -6.9595 N.am      5 UNK        -0.4015 
     20 C          24.7403   -1.0390   -7.7368 C.2       4 UNK         0.4946 
     21 O          25.0561   -0.5264   -8.8098 O.2       4 UNK        -0.5353 
     22 CA         23.3099   -0.8416   -7.2091 C.3       4 UNK         0.0277 
     23 CB         22.4385   -2.0656   -7.5328 C.3       4 UNK        -0.1981 
     24 N          23.2707   -0.5717   -5.7706 N.am      4 UNK        -0.4209 
     25 C          23.8043    0.5125   -5.1887 C.2       3 UNK         0.4942 
     26 O          24.3320    1.4343   -5.8088 O.2       3 UNK        -0.5208 
     27 CA         23.7968    0.5472   -3.6518 C.3       3 UNK         0.0250 
     28 CB         22.4893    1.1653   -3.1320 C.3       3 UNK        -0.1990 
     29 N          24.0033   -0.7674   -3.0323 N.am      3 UNK        -0.4232 
     30 C          25.0899   -1.5320   -3.2079 C.2       2 UNK         0.4993 
     31 O          26.0238   -1.2404   -3.9622 O.2       2 UNK        -0.5286 
     32 CA         25.1162   -2.8736   -2.4575 C.3       2 UNK         0.0209 
     33 CB         24.6757   -4.0158   -3.3873 C.3       2 UNK        -0.1931 
     34 N          26.4590   -3.1568   -1.9517 N.am      2 UNK        -0.4546 
     35 C          27.0484   -2.4773   -0.9606 C.2       1 UNK         0.5154 
     36 O          26.4583   -1.6359   -0.2762 O.2       1 UNK        -0.5181 
     37 C          27.7600   -0.5869   -7.1806 C.2       5 UNK         0.5014 
     38 O          28.4717   -0.2421   -8.1248 O.2       5 UNK        -0.5248 
     39 N          27.5595    0.1535   -6.0807 N.am      6 UNK        -0.4434 
     40 CA         28.1512    1.4730   -5.8475 C.3       6 UNK         0.0363 
     41 CB         27.7450    1.9758   -4.4540 C.3       6 UNK        -0.1936 
     42 C          27.7917    2.5066   -6.9320 C.2       6 UNK         0.5081 
     43 O          28.6407    3.3231   -7.2881 O.2       6 UNK        -0.5248 
     44 N          26.5583    2.4380   -7.4493 N.am      7 UNK        -0.4718 
     45 CA         26.0803    3.2570   -8.5597 C.3       7 UNK         0.0273 
     46 CB         24.5422    3.2535   -8.5769 C.3       7 UNK        -0.1935 
     47 C          26.6447    2.8107   -9.9194 C.2       7 UNK         0.5018 
     48 O          27.2116    3.6405  -10.6318 O.2       7 UNK        -0.5186 
     49 N          26.4358    1.5365  -10.2833 N.am      8 UNK        -0.4240 
     50 CA         26.6888    1.0356  -11.6374 C.3       8 UNK         0.0235 
     51 CB         25.7768   -0.1689  -11.9245 C.3       8 UNK        -0.2000 
     52 C          28.1544    0.6656  -11.9034 C.2       8 UNK         0.4941 
     53 O          28.6704    1.0052  -12.9694 O.2       8 UNK        -0.5273 
     54 N          28.7828   -0.0544  -10.9665 N.am      9 UNK        -0.4262 
     55 CA         30.1320   -0.6061  -11.1217 C.3       9 UNK         0.0264 
     56 CB         30.1527   -2.0487  -10.5893 C.3       9 UNK        -0.1955 
     57 C          31.1912    0.2410  -10.4041 C.2       9 UNK         0.5031 
     58 O          32.3039    0.3604  -10.9200 O.2       9 UNK        -0.5390 
     59 N          30.8200    0.7998   -9.2427 N.am      10 UNK        -0.4204 
     60 CA         31.6443    1.5271   -8.2706 C.3       10 UNK         0.0237 
     61 CB         32.3894    2.7155   -8.9148 C.3       10 UNK        -0.1985 
     62 C          32.5943    0.6018   -7.4875 C.2       10 UNK         0.4970 
     63 O          32.8265   -0.5465   -7.8717 O.2       10 UNK        -0.4914 
     64 N          33.0945    1.1190   -6.3611 N.am      11 UNK        -0.4285 
     65 CA         34.0231    0.4226   -5.4607 C.3       11 UNK         0.1007 
     66 C          35.4822    0.3949   -5.9953 C.2       11 UNK         0.5703 
     67 N          36.3124   -0.4987   -5.4755 N.am      11 UNK        -0.7361 
     68 O          35.8770    1.1875   -6.8492 O.2       11 UNK        -0.4986 
     69 C69        33.9233    1.0050   -4.0231 C.3       12 UNK        -0.0947 
     70 S70        33.9895   -0.2799   -2.7293 S.3       12 UNK        -0.2240 
     71 C71        32.2230   -0.5518   -2.3699 C.3       12 UNK         0.0194 
     72 H72        30.5314   -0.8575    2.8405 H         1 UNK         0.0906 
     73 H73        30.3285    0.1282    1.3916 H         1 UNK         0.0906 
     74 H74        29.0805    0.1281    2.6391 H         1 UNK         0.0906 
     75 H75        29.6792   -1.0290   -0.3781 H         1 UNK         0.3140 
     76 H76        28.9910   -2.5812   -1.7314 H         1 UNK         0.1085 
     77 H77        29.8350   -4.2741    0.1696 H         1 UNK         0.0836 
     78 H78        28.1457   -4.5824    0.4061 H         1 UNK         0.0836 
     79 H79        31.3086   -5.4317   -1.3341 H         1 UNK         0.0731 
     80 H80        30.8902   -6.2372   -2.8245 H         1 UNK         0.0731 
     81 H81        31.7810   -3.0278   -1.3329 H         1 UNK         0.1312 
     82 H82        31.4219   -0.7948   -4.9732 H         1 UNK         0.1406 
     83 H83        30.2417   -4.9185   -4.8519 H         1 UNK         0.1631 
     84 H84        30.3480   -1.7477   -6.8902 H         1 UNK         0.0717 
     85 H85        31.3970   -3.1133   -7.1228 H         1 UNK         0.0717 
     86 H86        26.9563   -3.7835   -6.1223 H         1 UNK         0.0934 
     87 H87        27.9594   -2.5858   -5.3647 H         1 UNK         0.0934 
     88 H88        27.0643   -2.2763   -8.2846 H         1 UNK         0.0739 
     89 H89        25.2680   -2.0453   -6.0546 H         1 UNK         0.3093 
     90 H90        22.8867    0.0247   -7.7225 H         1 UNK         0.0818 
     91 H91        21.4008   -1.9018   -7.2416 H         1 UNK         0.0819 
     92 H92        22.4428   -2.2731   -8.6039 H         1 UNK         0.0819 
     93 H93        22.7926   -2.9640   -7.0256 H         1 UNK         0.0819 
     94 H94        22.8435   -1.2711   -5.1812 H         1 UNK         0.3041 
     95 H95        24.6235    1.1876   -3.3377 H         1 UNK         0.0784 
     96 H96        22.3258    2.1529   -3.5661 H         1 UNK         0.0793 
     97 H97        21.6225    0.5520   -3.3819 H         1 UNK         0.0793 
     98 H98        22.5121    1.2906   -2.0492 H         1 UNK         0.0793 
     99 H99        23.2792   -1.0854   -2.4035 H         1 UNK         0.3024 
    100 H100       24.4315   -2.8244   -1.6075 H         1 UNK         0.1171 
    101 H101       24.6621   -4.9705   -2.8608 H         1 UNK         0.0786 
    102 H102       23.6686   -3.8452   -3.7700 H         1 UNK         0.0786 
    103 H103       25.3395   -4.1187   -4.2462 H         1 UNK         0.0786 
    104 H104       27.0106   -3.8290   -2.4675 H         1 UNK         0.2977 
    105 H105       26.9651   -0.2222   -5.3452 H         1 UNK         0.3127 
    106 H106       29.2353    1.3460   -5.8591 H         1 UNK         0.0770 
    107 H107       26.6676    2.1249   -4.3798 H         1 UNK         0.0814 
    108 H108       28.2225    2.9305   -4.2302 H         1 UNK         0.0814 
    109 H109       28.0410    1.2728   -3.6749 H         1 UNK         0.0814 
    110 H110       25.8931    1.7906   -7.0375 H         1 UNK         0.2983 
    111 H111       26.4077    4.2853   -8.3896 H         1 UNK         0.0947 
    112 H112       24.1579    3.8562   -9.4009 H         1 UNK         0.0806 
    113 H113       24.1371    3.6696   -7.6543 H         1 UNK         0.0806 
    114 H114       24.1387    2.2466   -8.6905 H         1 UNK         0.0806 
    115 H115       25.9688    0.8985   -9.6413 H         1 UNK         0.3000 
    116 H116       26.4178    1.8208  -12.3473 H         1 UNK         0.0850 
    117 H117       25.8956   -0.5116  -12.9532 H         1 UNK         0.0810 
    118 H118       24.7260    0.0866  -11.7866 H         1 UNK         0.0810 
    119 H119       26.0032   -1.0136  -11.2727 H         1 UNK         0.0810 
    120 H120       28.3203   -0.2269  -10.0789 H         1 UNK         0.3040 
    121 H121       30.4013   -0.6432  -12.1796 H         1 UNK         0.0766 
    122 H122       29.4466   -2.6811  -11.1274 H         1 UNK         0.0812 
    123 H123       29.9010   -2.0923   -9.5299 H         1 UNK         0.0812 
    124 H124       31.1421   -2.4931  -10.7056 H         1 UNK         0.0812 
    125 H125       29.8936    0.5484   -8.8996 H         1 UNK         0.3205 
    126 H126       30.9374    1.9347   -7.5482 H         1 UNK         0.0754 
    127 H127       32.8293    3.3618   -8.1547 H         1 UNK         0.0769 
    128 H128       31.7131    3.3315   -9.5078 H         1 UNK         0.0769 
    129 H129       33.2023    2.3869   -9.5629 H         1 UNK         0.0769 
    130 H130       32.8970    2.0818   -6.1330 H         1 UNK         0.2981 
    131 H131       33.7016   -0.6198   -5.4338 H         1 UNK         0.0541 
    132 H132       36.0033   -1.1301   -4.7524 H         1 UNK         0.3459 
    133 H133       37.2671   -0.5298   -5.7973 H         1 UNK         0.3459 
    134 H134       32.9989    1.5690   -3.8927 H         1 UNK         0.0612 
    135 H135       34.7176    1.7291   -3.8308 H         1 UNK         0.0612 
    136 H136       31.6286    0.3240   -2.6318 H         1 UNK         0.0624 
    137 H137       32.1140   -0.6694   -1.2907 H         1 UNK         0.0624 
@<TRIPOS>BOND
     1    1    2 1    
     2    1   72 1    
     3    1   73 1    
     4    1   74 1    
     5    2    3 2    
     6    2    4 am   BACKBONE|DICT|INTERRES
     7    4    5 1    
     8    4   75 1    
     9    5    6 1    
    10    5   35 1    
    11    5   76 1    
    12    6    7 1    
    13    6   77 1    
    14    6   78 1    
    15    7    8 1    
    16    8    9 1    
    17    8   79 1    
    18    8   80 1    
    19    9   10 ar   
    20    9   14 ar   
    21   10   11 ar   
    22   10   81 1    
    23   11   12 ar   
    24   11   71 1    
    25   12   13 ar   
    26   12   82 1    
    27   13   14 ar   
    28   13   15 1    
    29   14   83 1    
    30   15   16 1    
    31   15   84 1    
    32   15   85 1    
    33   16   17 1    
    34   17   18 1    
    35   17   86 1    
    36   17   87 1    
    37   18   19 1    
    38   18   37 1    
    39   18   88 1    
    40   19   20 am   BACKBONE|DICT|INTERRES
    41   19   89 1    
    42   20   21 2    
    43   20   22 1    
    44   22   23 1    
    45   22   24 1    
    46   22   90 1    
    47   23   91 1    
    48   23   92 1    
    49   23   93 1    
    50   24   25 am   BACKBONE|DICT|INTERRES
    51   24   94 1    
    52   25   26 2    
    53   25   27 1    
    54   27   28 1    
    55   27   29 1    
    56   27   95 1    
    57   28   96 1    
    58   28   97 1    
    59   28   98 1    
    60   29   30 am   BACKBONE|DICT|INTERRES
    61   29   99 1    
    62   30   31 2    
    63   30   32 1    
    64   32   33 1    
    65   32   34 1    
    66   32  100 1    
    67   33  101 1    
    68   33  102 1    
    69   33  103 1    
    70   34   35 am   BACKBONE|DICT|INTERRES
    71   34  104 1    
    72   35   36 2    
    73   37   38 2    
    74   37   39 am   BACKBONE|DICT|INTERRES
    75   39   40 1    
    76   39  105 1    
    77   40   41 1    
    78   40   42 1    
    79   40  106 1    
    80   41  107 1    
    81   41  108 1    
    82   41  109 1    
    83   42   43 2    
    84   42   44 am   BACKBONE|DICT|INTERRES
    85   44   45 1    
    86   44  110 1    
    87   45   46 1    
    88   45   47 1    
    89   45  111 1    
    90   46  112 1    
    91   46  113 1    
    92   46  114 1    
    93   47   48 2    
    94   47   49 am   BACKBONE|DICT|INTERRES
    95   49   50 1    
    96   49  115 1    
    97   50   51 1    
    98   50   52 1    
    99   50  116 1    
   100   51  117 1    
   101   51  118 1    
   102   51  119 1    
   103   52   53 2    
   104   52   54 am   BACKBONE|DICT|INTERRES
   105   54   55 1    
   106   54  120 1    
   107   55   56 1    
   108   55   57 1    
   109   55  121 1    
   110   56  122 1    
   111   56  123 1    
   112   56  124 1    
   113   57   58 2    
   114   57   59 am   BACKBONE|DICT|INTERRES
   115   59   60 1    
   116   59  125 1    
   117   60   61 1    
   118   60   62 1    
   119   60  126 1    
   120   61  127 1    
   121   61  128 1    
   122   61  129 1    
   123   62   63 2    
   124   62   64 am   BACKBONE|DICT|INTERRES
   125   64   65 1    
   126   64  130 1    
   127   65   66 1    
   128   65   69 1    
   129   65  131 1    
   130   66   67 am   BACKBONE|DICT|INTERRES
   131   66   68 2    
   132   67  132 1    
   133   67  133 1    
   134   69   70 1    
   135   69  134 1    
   136   69  135 1    
   137   70   71 1    
   138   71  136 1    
   139   71  137 1    
@<TRIPOS>SUBSTRUCTURE
     1 UNK         1 GROUP             0       ****    0 ROOT    
