@<TRIPOS>MOLECULE
3R137
137   139    1
SMALL
USER_CHARGES


@<TRIPOS>ATOM
      1 CA         30.5553    1.4054   -3.1606 C.3       0 UNK        -0.2020 
      2 C          29.6781    0.1637   -3.1100 C.2       0 UNK         0.4855 
      3 O          28.9978   -0.1377   -4.0881 O.2       0 UNK        -0.5197 
      4 N          29.6997   -0.5595   -1.9839 N.am      1 UNK        -0.4892 
      5 CA         28.8974   -1.7655   -1.7499 C.3       1 UNK         0.0835 
      6 C6         29.4685   -2.6351   -0.5986 C.3       12 UNK        -0.0855 
      7 S7         31.2460   -3.0229   -0.7686 S.3       12 UNK        -0.2931 
      8 C8         31.2215   -4.6969   -1.4854 C.3       12 UNK         0.0378 
      9 C9         30.9162   -4.6672   -2.9756 C.ar      12 UNK        -0.0802 
     10 C10        31.8924   -4.2324   -3.8786 C.ar      12 UNK        -0.0944 
     11 C11        31.6267   -4.2029   -5.2502 C.ar      12 UNK        -0.0787 
     12 C12        30.3752   -4.6117   -5.7169 C.ar      12 UNK        -0.0862 
     13 C13        29.3888   -5.0415   -4.8249 C.ar      12 UNK        -0.0733 
     14 C14        29.6682   -5.0790   -3.4547 C.ar      12 UNK        -0.0832 
     15 C15        28.0193   -5.4514   -5.3494 C.3       12 UNK         0.0240 
     16 S16        26.6951   -4.3479   -4.7619 S.3       12 UNK        -0.2522 
     17 C17        27.2275   -2.7137   -5.3820 C.3       12 UNK        -0.0967 
     18 CA         26.3286   -2.1372   -6.5025 C.3       5 UNK         0.0660 
     19 N          24.9043   -2.1704   -6.1598 N.am      5 UNK        -0.4015 
     20 C          23.8942   -2.0572   -7.0323 C.2       4 UNK         0.4946 
     21 O          24.0496   -1.9440   -8.2484 O.2       4 UNK        -0.5353 
     22 CA         22.4671   -2.0691   -6.4532 C.3       4 UNK         0.0277 
     23 CB         21.9268   -3.5071   -6.3925 C.3       4 UNK        -0.1981 
     24 N          22.3870   -1.4640   -5.1205 N.am      4 UNK        -0.4209 
     25 C          22.4729   -0.1472   -4.8816 C.2       3 UNK         0.4942 
     26 O          22.5376    0.7058   -5.7669 O.2       3 UNK        -0.5208 
     27 CA         22.5338    0.2929   -3.4046 C.3       3 UNK         0.0250 
     28 CB         21.1193    0.5559   -2.8637 C.3       3 UNK        -0.1990 
     29 N          23.2324   -0.6468   -2.5139 N.am      3 UNK        -0.4232 
     30 C          24.4974   -1.0581   -2.6799 C.2       2 UNK         0.4993 
     31 O          25.1931   -0.7166   -3.6367 O.2       2 UNK        -0.5286 
     32 CA         25.0484   -2.0615   -1.6507 C.3       2 UNK         0.0209 
     33 CB         24.3391   -3.4208   -1.7854 C.3       2 UNK        -0.1931 
     34 N          26.4921   -2.2706   -1.8111 N.am      2 UNK        -0.4546 
     35 C          27.4311   -1.3880   -1.4445 C.2       1 UNK         0.5154 
     36 O          27.1806   -0.3421   -0.8376 O.2       1 UNK        -0.5181 
     37 C          26.7707   -0.6995   -6.8335 C.2       5 UNK         0.5014 
     38 O          27.5201   -0.4972   -7.7887 O.2       5 UNK        -0.5248 
     39 N          26.2618    0.2708   -6.0575 N.am      6 UNK        -0.4434 
     40 CA         26.5517    1.7064   -6.1289 C.3       6 UNK         0.0363 
     41 CB         25.8253    2.4187   -4.9773 C.3       6 UNK        -0.1936 
     42 C          26.2334    2.3844   -7.4758 C.2       6 UNK         0.5081 
     43 O          26.6985    3.5004   -7.7070 O.2       6 UNK        -0.5248 
     44 N          25.5009    1.6991   -8.3652 N.am      7 UNK        -0.4718 
     45 CA         25.3549    2.0552   -9.7801 C.3       7 UNK         0.0273 
     46 CB         24.3384    1.1047  -10.4320 C.3       7 UNK        -0.1935 
     47 C          26.6913    2.0342  -10.5541 C.2       7 UNK         0.5018 
     48 O          26.8142    2.7396  -11.5560 O.2       7 UNK        -0.5186 
     49 N          27.6673    1.2568  -10.0662 N.am      8 UNK        -0.4240 
     50 CA         29.0485    1.2151  -10.5356 C.3       8 UNK         0.0235 
     51 CB         29.2648   -0.0624  -11.3692 C.3       8 UNK        -0.2000 
     52 C          29.9789    1.3074   -9.3141 C.2       8 UNK         0.4941 
     53 O          30.7935    0.4109   -9.0900 O.2       8 UNK        -0.5273 
     54 N          29.8123    2.3816   -8.5264 N.am      9 UNK        -0.4262 
     55 CA         30.5799    2.6782   -7.3112 C.3       9 UNK         0.0264 
     56 CB         30.0041    3.9425   -6.6487 C.3       9 UNK        -0.1955 
     57 C          32.0912    2.8545   -7.5590 C.2       9 UNK         0.5031 
     58 O          32.5088    3.1447   -8.6830 O.2       9 UNK        -0.5390 
     59 N          32.8701    2.7021   -6.4770 N.am      10 UNK        -0.4204 
     60 CA         34.3401    2.7373   -6.4184 C.3       10 UNK         0.0237 
     61 CB         34.8978    4.1066   -6.8656 C.3       10 UNK        -0.1985 
     62 C          35.0147    1.5470   -7.1329 C.2       10 UNK         0.4970 
     63 O          36.1761    1.6493   -7.5326 O.2       10 UNK        -0.4914 
     64 N          34.2832    0.4336   -7.2577 N.am      11 UNK        -0.4285 
     65 CA         34.7624   -0.8627   -7.7494 C.3       11 UNK         0.1007 
     66 C          35.7940   -1.5425   -6.8041 C.2       11 UNK         0.5703 
     67 N          36.5866   -2.4709   -7.3231 N.am      11 UNK        -0.7361 
     68 O          35.8679   -1.2614   -5.6087 O.2       11 UNK        -0.4986 
     69 C69        33.5715   -1.7982   -8.0910 C.3       12 UNK        -0.0947 
     70 S70        32.3639   -2.0068   -6.7337 S.3       12 UNK        -0.2240 
     71 C71        32.6808   -3.7250   -6.2356 C.3       12 UNK         0.0194 
     72 H72        29.9777    2.2588   -3.5154 H         1 UNK         0.0906 
     73 H73        30.9628    1.6559   -2.1813 H         1 UNK         0.0906 
     74 H74        31.3865    1.2430   -3.8452 H         1 UNK         0.0906 
     75 H75        30.2709   -0.2630   -1.2060 H         1 UNK         0.3140 
     76 H76        28.9156   -2.3579   -2.6675 H         1 UNK         0.1085 
     77 H77        29.3443   -2.1231    0.3580 H         1 UNK         0.0836 
     78 H78        28.9064   -3.5667   -0.5101 H         1 UNK         0.0836 
     79 H79        32.1996   -5.1556   -1.3331 H         1 UNK         0.0731 
     80 H80        30.5082   -5.3232   -0.9473 H         1 UNK         0.0731 
     81 H81        32.8566   -3.9089   -3.5100 H         1 UNK         0.1312 
     82 H82        30.1667   -4.5770   -6.7777 H         1 UNK         0.1406 
     83 H83        28.9068   -5.4156   -2.7641 H         1 UNK         0.1631 
     84 H84        27.8015   -6.4696   -5.0245 H         1 UNK         0.0717 
     85 H85        28.0054   -5.4671   -6.4403 H         1 UNK         0.0717 
     86 H86        27.2442   -2.0401   -4.5260 H         1 UNK         0.0934 
     87 H87        28.2606   -2.7582   -5.7288 H         1 UNK         0.0934 
     88 H88        26.4734   -2.7457   -7.3979 H         1 UNK         0.0739 
     89 H89        24.6982   -2.1889   -5.1711 H         1 UNK         0.3093 
     90 H90        21.8314   -1.4944   -7.1306 H         1 UNK         0.0818 
     91 H91        20.8914   -3.5284   -6.0519 H         1 UNK         0.0819 
     92 H92        21.9510   -3.9735   -7.3785 H         1 UNK         0.0819 
     93 H93        22.5154   -4.1344   -5.7216 H         1 UNK         0.0819 
     94 H94        22.3105   -2.0908   -4.3329 H         1 UNK         0.3041 
     95 H95        23.0881    1.2334   -3.3751 H         1 UNK         0.0784 
     96 H96        20.5864    1.2687   -3.4948 H         1 UNK         0.0793 
     97 H97        20.5232   -0.3569   -2.8281 H         1 UNK         0.0793 
     98 H98        21.1498    0.9777   -1.8588 H         1 UNK         0.0793 
     99 H99        22.7133   -0.9774   -1.7128 H         1 UNK         0.3024 
    100 H100       24.8630   -1.6593   -0.6519 H         1 UNK         0.1171 
    101 H101       23.2709   -3.3344   -1.5834 H         1 UNK         0.0786 
    102 H102       24.7377   -4.1471   -1.0767 H         1 UNK         0.0786 
    103 H103       24.4475   -3.8387   -2.7868 H         1 UNK         0.0786 
    104 H104       26.7660   -3.0937   -2.3283 H         1 UNK         0.2977 
    105 H105       25.7187   -0.0268   -5.2480 H         1 UNK         0.3127 
    106 H106       27.6264    1.8114   -5.9695 H         1 UNK         0.0770 
    107 H107       24.7427    2.3293   -5.0717 H         1 UNK         0.0814 
    108 H108       26.0662    3.4824   -4.9593 H         1 UNK         0.0814 
    109 H109       26.1144    2.0048   -4.0106 H         1 UNK         0.0814 
    110 H110       25.1498    0.7934   -8.0866 H         1 UNK         0.2983 
    111 H111       24.9631    3.0733   -9.8314 H         1 UNK         0.0947 
    112 H112       24.1871    1.3552  -11.4829 H         1 UNK         0.0806 
    113 H113       23.3666    1.1654   -9.9416 H         1 UNK         0.0806 
    114 H114       24.6714    0.0667  -10.3875 H         1 UNK         0.0806 
    115 H115       27.4852    0.7056   -9.2277 H         1 UNK         0.3000 
    116 H116       29.2646    2.0808  -11.1654 H         1 UNK         0.0850 
    117 H117       30.2907   -0.1216  -11.7347 H         1 UNK         0.0810 
    118 H118       28.6077   -0.0833  -12.2387 H         1 UNK         0.0810 
    119 H119       29.0726   -0.9611  -10.7814 H         1 UNK         0.0810 
    120 H120       29.1070    3.0575   -8.7845 H         1 UNK         0.3040 
    121 H121       30.4438    1.8331   -6.6322 H         1 UNK         0.0766 
    122 H122       30.5489    4.2007   -5.7397 H         1 UNK         0.0812 
    123 H123       28.9625    3.8073   -6.3619 H         1 UNK         0.0812 
    124 H124       30.0587    4.8047   -7.3146 H         1 UNK         0.0812 
    125 H125       32.4160    2.5009   -5.5974 H         1 UNK         0.3205 
    126 H126       34.5940    2.6199   -5.3637 H         1 UNK         0.0754 
    127 H127       35.9638    4.1841   -6.6479 H         1 UNK         0.0769 
    128 H128       34.4027    4.9265   -6.3453 H         1 UNK         0.0769 
    129 H129       34.7762    4.2660   -7.9372 H         1 UNK         0.0769 
    130 H130       33.3406    0.4285   -6.8990 H         1 UNK         0.2981 
    131 H131       35.2913   -0.6599   -8.6827 H         1 UNK         0.0541 
    132 H132       36.5353   -2.7164   -8.2995 H         1 UNK         0.3459 
    133 H133       37.2565   -2.9306   -6.7265 H         1 UNK         0.3459 
    134 H134       33.9255   -2.7723   -8.4325 H         1 UNK         0.0612 
    135 H135       33.0257   -1.3799   -8.9381 H         1 UNK         0.0612 
    136 H136       33.6792   -3.7977   -5.8014 H         1 UNK         0.0624 
    137 H137       32.6737   -4.3695   -7.1159 H         1 UNK         0.0624 
@<TRIPOS>BOND
     1    1    2 1    
     2    1   72 1    
     3    1   73 1    
     4    1   74 1    
     5    2    3 2    
     6    2    4 am   BACKBONE|DICT|INTERRES
     7    4    5 1    
     8    4   75 1    
     9    5    6 1    
    10    5   35 1    
    11    5   76 1    
    12    6    7 1    
    13    6   77 1    
    14    6   78 1    
    15    7    8 1    
    16    8    9 1    
    17    8   79 1    
    18    8   80 1    
    19    9   10 ar   
    20    9   14 ar   
    21   10   11 ar   
    22   10   81 1    
    23   11   12 ar   
    24   11   71 1    
    25   12   13 ar   
    26   12   82 1    
    27   13   14 ar   
    28   13   15 1    
    29   14   83 1    
    30   15   16 1    
    31   15   84 1    
    32   15   85 1    
    33   16   17 1    
    34   17   18 1    
    35   17   86 1    
    36   17   87 1    
    37   18   19 1    
    38   18   37 1    
    39   18   88 1    
    40   19   20 am   BACKBONE|DICT|INTERRES
    41   19   89 1    
    42   20   21 2    
    43   20   22 1    
    44   22   23 1    
    45   22   24 1    
    46   22   90 1    
    47   23   91 1    
    48   23   92 1    
    49   23   93 1    
    50   24   25 am   BACKBONE|DICT|INTERRES
    51   24   94 1    
    52   25   26 2    
    53   25   27 1    
    54   27   28 1    
    55   27   29 1    
    56   27   95 1    
    57   28   96 1    
    58   28   97 1    
    59   28   98 1    
    60   29   30 am   BACKBONE|DICT|INTERRES
    61   29   99 1    
    62   30   31 2    
    63   30   32 1    
    64   32   33 1    
    65   32   34 1    
    66   32  100 1    
    67   33  101 1    
    68   33  102 1    
    69   33  103 1    
    70   34   35 am   BACKBONE|DICT|INTERRES
    71   34  104 1    
    72   35   36 2    
    73   37   38 2    
    74   37   39 am   BACKBONE|DICT|INTERRES
    75   39   40 1    
    76   39  105 1    
    77   40   41 1    
    78   40   42 1    
    79   40  106 1    
    80   41  107 1    
    81   41  108 1    
    82   41  109 1    
    83   42   43 2    
    84   42   44 am   BACKBONE|DICT|INTERRES
    85   44   45 1    
    86   44  110 1    
    87   45   46 1    
    88   45   47 1    
    89   45  111 1    
    90   46  112 1    
    91   46  113 1    
    92   46  114 1    
    93   47   48 2    
    94   47   49 am   BACKBONE|DICT|INTERRES
    95   49   50 1    
    96   49  115 1    
    97   50   51 1    
    98   50   52 1    
    99   50  116 1    
   100   51  117 1    
   101   51  118 1    
   102   51  119 1    
   103   52   53 2    
   104   52   54 am   BACKBONE|DICT|INTERRES
   105   54   55 1    
   106   54  120 1    
   107   55   56 1    
   108   55   57 1    
   109   55  121 1    
   110   56  122 1    
   111   56  123 1    
   112   56  124 1    
   113   57   58 2    
   114   57   59 am   BACKBONE|DICT|INTERRES
   115   59   60 1    
   116   59  125 1    
   117   60   61 1    
   118   60   62 1    
   119   60  126 1    
   120   61  127 1    
   121   61  128 1    
   122   61  129 1    
   123   62   63 2    
   124   62   64 am   BACKBONE|DICT|INTERRES
   125   64   65 1    
   126   64  130 1    
   127   65   66 1    
   128   65   69 1    
   129   65  131 1    
   130   66   67 am   BACKBONE|DICT|INTERRES
   131   66   68 2    
   132   67  132 1    
   133   67  133 1    
   134   69   70 1    
   135   69  134 1    
   136   69  135 1    
   137   70   71 1    
   138   71  136 1    
   139   71  137 1    
@<TRIPOS>SUBSTRUCTURE
     1 UNK         1 GROUP             0       ****    0 ROOT    
