@<TRIPOS>MOLECULE
3R137
137   139    1
SMALL
USER_CHARGES


@<TRIPOS>ATOM
      1 CA         26.9201   -7.5525   -5.6315 C.3       0 UNK        -0.2020 
      2 C          27.2260   -6.9493   -4.2686 C.2       0 UNK         0.4855 
      3 O          27.8786   -7.5917   -3.4459 O.2       0 UNK        -0.5197 
      4 N          26.7568   -5.7227   -4.0244 N.am      1 UNK        -0.4892 
      5 CA         26.8974   -4.9775   -2.7752 C.3       1 UNK         0.0835 
      6 C6         28.3396   -4.4493   -2.5454 C.3       12 UNK        -0.0855 
      7 S7         28.7196   -4.2321   -0.7722 S.3       12 UNK        -0.2931 
      8 C8         30.5382   -4.1439   -0.8038 C.3       12 UNK         0.0378 
      9 C9         31.0236   -2.9887   -1.6660 C.ar      12 UNK        -0.0802 
     10 C10        31.6098   -3.2361   -2.9100 C.ar      12 UNK        -0.0944 
     11 C11        32.0180   -2.1767   -3.7245 C.ar      12 UNK        -0.0787 
     12 C12        31.8451   -0.8618   -3.2812 C.ar      12 UNK        -0.0862 
     13 C13        31.2612   -0.6011   -2.0366 C.ar      12 UNK        -0.0733 
     14 C14        30.8600   -1.6709   -1.2311 C.ar      12 UNK        -0.0832 
     15 C15        31.0516    0.8292   -1.5507 C.3       12 UNK         0.0240 
     16 S16        30.2497    1.9139   -2.7796 S.3       12 UNK        -0.2522 
     17 C17        28.6885    1.0381   -3.1457 C.3       12 UNK        -0.0967 
     18 CA         28.3691    1.0602   -4.6629 C.3       5 UNK         0.0660 
     19 N          27.4893   -0.0394   -5.0591 N.am      5 UNK        -0.4015 
     20 C          27.3301   -0.4618   -6.3233 C.2       4 UNK         0.4946 
     21 O          27.9632   -0.0171   -7.2822 O.2       4 UNK        -0.5353 
     22 CA         26.2603   -1.5403   -6.5745 C.3       4 UNK         0.0277 
     23 CB         26.8848   -2.9408   -6.4690 C.3       4 UNK        -0.1981 
     24 N          25.1092   -1.4377   -5.6701 N.am      4 UNK        -0.4209 
     25 C          24.2954   -0.3712   -5.6060 C.2       3 UNK         0.4942 
     26 O          24.3839    0.5943   -6.3619 O.2       3 UNK        -0.5208 
     27 CA         23.2442   -0.3266   -4.4833 C.3       3 UNK         0.0250 
     28 CB         21.8767   -0.7823   -5.0149 C.3       3 UNK        -0.1990 
     29 N          23.5865   -1.1087   -3.2933 N.am      3 UNK        -0.4232 
     30 C          24.7003   -0.9905   -2.5557 C.2       2 UNK         0.4993 
     31 O          25.6021   -0.1842   -2.7952 O.2       2 UNK        -0.5286 
     32 CA         24.8622   -1.9825   -1.3883 C.3       2 UNK         0.0209 
     33 CB         23.5261   -2.5802   -0.8921 C.3       2 UNK        -0.1931 
     34 N          25.8062   -3.0666   -1.6920 N.am      2 UNK        -0.4546 
     35 C          25.8375   -3.8583   -2.7746 C.2       1 UNK         0.5154 
     36 O          25.0823   -3.7357   -3.7463 O.2       1 UNK        -0.5181 
     37 C          27.7710    2.4125   -5.0965 C.2       5 UNK         0.5014 
     38 O          28.4792    3.2281   -5.6871 O.2       5 UNK        -0.5248 
     39 N          26.4710    2.6108   -4.8253 N.am      6 UNK        -0.4434 
     40 CA         25.7203    3.8255   -5.1625 C.3       6 UNK         0.0363 
     41 CB         24.3212    3.7608   -4.5295 C.3       6 UNK        -0.1936 
     42 C          25.6197    4.0748   -6.6774 C.2       6 UNK         0.5081 
     43 O          25.7641    5.2157   -7.1167 O.2       6 UNK        -0.5248 
     44 N          25.4034    3.0011   -7.4479 N.am      7 UNK        -0.4718 
     45 CA         25.3867    3.0102   -8.9125 C.3       7 UNK         0.0273 
     46 CB         24.6790    1.7365   -9.4050 C.3       7 UNK        -0.1935 
     47 C          26.7879    3.1103   -9.5435 C.2       7 UNK         0.5018 
     48 O          26.8761    3.3851  -10.7409 O.2       7 UNK        -0.5186 
     49 N          27.8407    2.8603   -8.7478 N.am      8 UNK        -0.4240 
     50 CA         29.2515    2.7492   -9.1373 C.3       8 UNK         0.0235 
     51 CB         29.8129    4.1179   -9.5765 C.3       8 UNK        -0.2000 
     52 C          29.4740    1.6354  -10.1789 C.2       8 UNK         0.4941 
     53 O          30.1623    1.8441  -11.1800 O.2       8 UNK        -0.5273 
     54 N          28.8634    0.4694   -9.9263 N.am      9 UNK        -0.4262 
     55 CA         28.9096   -0.7076  -10.7981 C.3       9 UNK         0.0264 
     56 CB         27.7368   -1.6356  -10.4413 C.3       9 UNK        -0.1955 
     57 C          30.2453   -1.4680  -10.7155 C.2       9 UNK         0.5031 
     58 O          30.5586   -2.2393  -11.6237 O.2       9 UNK        -0.5390 
     59 N          31.0003   -1.2423   -9.6369 N.am      10 UNK        -0.4204 
     60 CA         32.3128   -1.8065   -9.3523 C.3       10 UNK         0.0237 
     61 CB         32.1520   -3.2308   -8.7829 C.3       10 UNK        -0.1985 
     62 C          33.0254   -0.8743   -8.3630 C.2       10 UNK         0.4970 
     63 O          32.4035    0.0644   -7.8549 O.2       10 UNK        -0.4914 
     64 N          34.2983   -1.1784   -8.0824 N.am      11 UNK        -0.4285 
     65 CA         35.1660   -0.4723   -7.1226 C.3       11 UNK         0.1007 
     66 C          35.4987    0.9888   -7.5595 C.2       11 UNK         0.5703 
     67 N          35.9547    1.8437   -6.6527 N.am      11 UNK        -0.7361 
     68 O          35.4027    1.3458   -8.7329 O.2       11 UNK        -0.4986 
     69 C69        34.6660   -0.5946   -5.6485 C.3       12 UNK        -0.0947 
     70 S70        34.4182   -2.3260   -5.1193 S.3       12 UNK        -0.2240 
     71 C71        32.6024   -2.4604   -5.0989 C.3       12 UNK         0.0194 
     72 H72        27.8470   -7.7962   -6.1500 H         1 UNK         0.0906 
     73 H73        26.3431   -8.4695   -5.5153 H         1 UNK         0.0906 
     74 H74        26.3497   -6.8698   -6.2612 H         1 UNK         0.0906 
     75 H75        26.1533   -5.2547   -4.6913 H         1 UNK         0.3140 
     76 H76        26.6300   -5.6627   -1.9673 H         1 UNK         0.1085 
     77 H77        28.5148   -3.5130   -3.0798 H         1 UNK         0.0836 
     78 H78        29.0684   -5.1563   -2.9442 H         1 UNK         0.0836 
     79 H79        30.9395   -5.0939   -1.1605 H         1 UNK         0.0731 
     80 H80        30.9076   -4.0180    0.2150 H         1 UNK         0.0731 
     81 H81        31.7306   -4.2545   -3.2535 H         1 UNK         0.1312 
     82 H82        32.1468   -0.0370   -3.9104 H         1 UNK         0.1406 
     83 H83        30.3994   -1.4831   -0.2703 H         1 UNK         0.1631 
     84 H84        32.0210    1.2546   -1.2884 H         1 UNK         0.0717 
     85 H85        30.4520    0.8447   -0.6392 H         1 UNK         0.0717 
     86 H86        28.7737    0.0054   -2.8057 H         1 UNK         0.0934 
     87 H87        27.8816    1.4715   -2.5511 H         1 UNK         0.0934 
     88 H88        29.3061    0.9233   -5.2088 H         1 UNK         0.0739 
     89 H89        26.8810   -0.4060   -4.3341 H         1 UNK         0.3093 
     90 H90        25.8912   -1.4042   -7.5932 H         1 UNK         0.0818 
     91 H91        27.7082   -3.0561   -7.1750 H         1 UNK         0.0819 
     92 H92        27.2871   -3.1285   -5.4733 H         1 UNK         0.0819 
     93 H93        26.1554   -3.7192   -6.6927 H         1 UNK         0.0819 
     94 H94        24.9717   -2.1968   -5.0082 H         1 UNK         0.3041 
     95 H95        23.1574    0.7138   -4.1658 H         1 UNK         0.0784 
     96 H96        21.5827   -0.1976   -5.8881 H         1 UNK         0.0793 
     97 H97        21.8895   -1.8312   -5.3140 H         1 UNK         0.0793 
     98 H98        21.0954   -0.6547   -4.2653 H         1 UNK         0.0793 
     99 H99        22.9366   -1.8377   -3.0370 H         1 UNK         0.3024 
    100 H100       25.2936   -1.4074   -0.5670 H         1 UNK         0.1171 
    101 H101       23.6742   -3.1498    0.0256 H         1 UNK         0.0786 
    102 H102       22.8011   -1.7972   -0.6643 H         1 UNK         0.0786 
    103 H103       23.0751   -3.2536   -1.6219 H         1 UNK         0.0786 
    104 H104       26.5231   -3.2246   -0.9939 H         1 UNK         0.2977 
    105 H105       25.9618    1.8775   -4.3514 H         1 UNK         0.3127 
    106 H106       26.2535    4.6718   -4.7240 H         1 UNK         0.0770 
    107 H107       23.7265    2.9473   -4.9455 H         1 UNK         0.0814 
    108 H108       23.7723    4.6863   -4.7089 H         1 UNK         0.0814 
    109 H109       24.3765    3.6220   -3.4497 H         1 UNK         0.0814 
    110 H110       25.2109    2.1067   -6.9985 H         1 UNK         0.2983 
    111 H111       24.8131    3.8769   -9.2483 H         1 UNK         0.0947 
    112 H112       24.6064    1.7226  -10.4934 H         1 UNK         0.0806 
    113 H113       23.6647    1.6684   -9.0114 H         1 UNK         0.0806 
    114 H114       25.2160    0.8365   -9.1016 H         1 UNK         0.0806 
    115 H115       27.6489    2.6622   -7.7740 H         1 UNK         0.3000 
    116 H116       29.7927    2.4417   -8.2407 H         1 UNK         0.0850 
    117 H117       30.8869    4.0582   -9.7569 H         1 UNK         0.0810 
    118 H118       29.6550    4.8742   -8.8075 H         1 UNK         0.0810 
    119 H119       29.3480    4.4720  -10.4971 H         1 UNK         0.0810 
    120 H120       28.3743    0.3623   -9.0379 H         1 UNK         0.3040 
    121 H121       28.7827   -0.3766  -11.8310 H         1 UNK         0.0766 
    122 H122       26.7798   -1.1230  -10.5408 H         1 UNK         0.0812 
    123 H123       27.8149   -2.0059   -9.4189 H         1 UNK         0.0812 
    124 H124       27.7104   -2.5035  -11.1016 H         1 UNK         0.0812 
    125 H125       30.7007   -0.5468   -8.9635 H         1 UNK         0.3205 
    126 H126       32.8994   -1.8371  -10.2728 H         1 UNK         0.0754 
    127 H127       31.6796   -3.8947   -9.5072 H         1 UNK         0.0769 
    128 H128       31.5382   -3.2350   -7.8817 H         1 UNK         0.0769 
    129 H129       33.1153   -3.6727   -8.5262 H         1 UNK         0.0769 
    130 H130       34.7310   -1.9513   -8.5661 H         1 UNK         0.2981 
    131 H131       36.1227   -0.9923   -7.1793 H         1 UNK         0.0541 
    132 H132       36.0676    1.5723   -5.6891 H         1 UNK         0.3459 
    133 H133       36.1899    2.7807   -6.9405 H         1 UNK         0.3459 
    134 H134       33.7493   -0.0222   -5.5088 H         1 UNK         0.0612 
    135 H135       35.3954   -0.1659   -4.9604 H         1 UNK         0.0612 
    136 H136       32.1560   -1.7848   -5.8270 H         1 UNK         0.0624 
    137 H137       32.3317   -3.4670   -5.4208 H         1 UNK         0.0624 
@<TRIPOS>BOND
     1    1    2 1    
     2    1   72 1    
     3    1   73 1    
     4    1   74 1    
     5    2    3 2    
     6    2    4 am   BACKBONE|DICT|INTERRES
     7    4    5 1    
     8    4   75 1    
     9    5    6 1    
    10    5   35 1    
    11    5   76 1    
    12    6    7 1    
    13    6   77 1    
    14    6   78 1    
    15    7    8 1    
    16    8    9 1    
    17    8   79 1    
    18    8   80 1    
    19    9   10 ar   
    20    9   14 ar   
    21   10   11 ar   
    22   10   81 1    
    23   11   12 ar   
    24   11   71 1    
    25   12   13 ar   
    26   12   82 1    
    27   13   14 ar   
    28   13   15 1    
    29   14   83 1    
    30   15   16 1    
    31   15   84 1    
    32   15   85 1    
    33   16   17 1    
    34   17   18 1    
    35   17   86 1    
    36   17   87 1    
    37   18   19 1    
    38   18   37 1    
    39   18   88 1    
    40   19   20 am   BACKBONE|DICT|INTERRES
    41   19   89 1    
    42   20   21 2    
    43   20   22 1    
    44   22   23 1    
    45   22   24 1    
    46   22   90 1    
    47   23   91 1    
    48   23   92 1    
    49   23   93 1    
    50   24   25 am   BACKBONE|DICT|INTERRES
    51   24   94 1    
    52   25   26 2    
    53   25   27 1    
    54   27   28 1    
    55   27   29 1    
    56   27   95 1    
    57   28   96 1    
    58   28   97 1    
    59   28   98 1    
    60   29   30 am   BACKBONE|DICT|INTERRES
    61   29   99 1    
    62   30   31 2    
    63   30   32 1    
    64   32   33 1    
    65   32   34 1    
    66   32  100 1    
    67   33  101 1    
    68   33  102 1    
    69   33  103 1    
    70   34   35 am   BACKBONE|DICT|INTERRES
    71   34  104 1    
    72   35   36 2    
    73   37   38 2    
    74   37   39 am   BACKBONE|DICT|INTERRES
    75   39   40 1    
    76   39  105 1    
    77   40   41 1    
    78   40   42 1    
    79   40  106 1    
    80   41  107 1    
    81   41  108 1    
    82   41  109 1    
    83   42   43 2    
    84   42   44 am   BACKBONE|DICT|INTERRES
    85   44   45 1    
    86   44  110 1    
    87   45   46 1    
    88   45   47 1    
    89   45  111 1    
    90   46  112 1    
    91   46  113 1    
    92   46  114 1    
    93   47   48 2    
    94   47   49 am   BACKBONE|DICT|INTERRES
    95   49   50 1    
    96   49  115 1    
    97   50   51 1    
    98   50   52 1    
    99   50  116 1    
   100   51  117 1    
   101   51  118 1    
   102   51  119 1    
   103   52   53 2    
   104   52   54 am   BACKBONE|DICT|INTERRES
   105   54   55 1    
   106   54  120 1    
   107   55   56 1    
   108   55   57 1    
   109   55  121 1    
   110   56  122 1    
   111   56  123 1    
   112   56  124 1    
   113   57   58 2    
   114   57   59 am   BACKBONE|DICT|INTERRES
   115   59   60 1    
   116   59  125 1    
   117   60   61 1    
   118   60   62 1    
   119   60  126 1    
   120   61  127 1    
   121   61  128 1    
   122   61  129 1    
   123   62   63 2    
   124   62   64 am   BACKBONE|DICT|INTERRES
   125   64   65 1    
   126   64  130 1    
   127   65   66 1    
   128   65   69 1    
   129   65  131 1    
   130   66   67 am   BACKBONE|DICT|INTERRES
   131   66   68 2    
   132   67  132 1    
   133   67  133 1    
   134   69   70 1    
   135   69  134 1    
   136   69  135 1    
   137   70   71 1    
   138   71  136 1    
   139   71  137 1    
@<TRIPOS>SUBSTRUCTURE
     1 UNK         1 GROUP             0       ****    0 ROOT    
