@<TRIPOS>MOLECULE
3R137
137   139    1
SMALL
USER_CHARGES


@<TRIPOS>ATOM
      1 CA         27.1572   -3.4439    0.0339 C.3       0 UNK        -0.2020 
      2 C          27.9876   -2.7921    1.1380 C.2       0 UNK         0.4855 
      3 O          28.2190   -3.4395    2.1569 O.2       0 UNK        -0.5197 
      4 N          28.4643   -1.5421    1.0195 N.am      1 UNK        -0.4892 
      5 CA         28.3197   -0.5570   -0.0644 C.3       1 UNK         0.0835 
      6 C6         29.2391   -0.8226   -1.2898 C.3       12 UNK        -0.0855 
      7 S7         31.0138   -0.8893   -0.8562 S.3       12 UNK        -0.2931 
      8 C8         31.3871   -2.6742   -0.9251 C.3       12 UNK         0.0378 
      9 C9         31.1209   -3.2607   -2.3040 C.ar      12 UNK        -0.0802 
     10 C10        31.9898   -2.9994   -3.3677 C.ar      12 UNK        -0.0944 
     11 C11        31.7158   -3.4986   -4.6448 C.ar      12 UNK        -0.0787 
     12 C12        30.5527   -4.2470   -4.8571 C.ar      12 UNK        -0.0862 
     13 C13        29.6833   -4.5236   -3.7966 C.ar      12 UNK        -0.0733 
     14 C14        29.9890   -4.0512   -2.5194 C.ar      12 UNK        -0.0832 
     15 C15        28.4172   -5.3355   -4.0221 C.3       12 UNK         0.0240 
     16 S16        26.9159   -4.3171   -3.8100 S.3       12 UNK        -0.2522 
     17 C17        25.8740   -4.9484   -5.1762 C.3       12 UNK        -0.0967 
     18 CA         25.7925   -4.0685   -6.4579 C.3       5 UNK         0.0660 
     19 N          24.7601   -3.0305   -6.3622 N.am      5 UNK        -0.4015 
     20 C          23.9324   -2.7108   -7.3695 C.2       4 UNK         0.4946 
     21 O          23.9554   -3.2532   -8.4752 O.2       4 UNK        -0.5353 
     22 CA         22.8921   -1.6065   -7.1146 C.3       4 UNK         0.0277 
     23 CB         21.6275   -2.1975   -6.4702 C.3       4 UNK        -0.1981 
     24 N          23.3946   -0.5120   -6.2860 N.am      4 UNK        -0.4209 
     25 C          24.3465    0.3531   -6.6605 C.2       3 UNK         0.4942 
     26 O          24.8888    0.3484   -7.7653 O.2       3 UNK        -0.5208 
     27 CA         24.7920    1.3929   -5.6192 C.3       3 UNK         0.0250 
     28 CB         24.0067    2.7014   -5.8040 C.3       3 UNK        -0.1990 
     29 N          24.6749    0.9482   -4.2252 N.am      3 UNK        -0.4232 
     30 C          25.2866   -0.1255   -3.7090 C.2       2 UNK         0.4993 
     31 O          25.9607   -0.9205   -4.3699 O.2       2 UNK        -0.5286 
     32 CA         25.1126   -0.3701   -2.2114 C.3       2 UNK         0.0209 
     33 CB         24.2236   -1.5993   -1.9516 C.3       2 UNK        -0.1931 
     34 N          26.4450   -0.5904   -1.6678 N.am      2 UNK        -0.4546 
     35 C          26.8382   -0.3021   -0.4219 C.2       1 UNK         0.5154 
     36 O          26.0826    0.1461    0.4426 O.2       1 UNK        -0.5181 
     37 C          27.1412   -3.4658   -6.9016 C.2       5 UNK         0.5014 
     38 O          27.8646   -4.1036   -7.6680 O.2       5 UNK        -0.5248 
     39 N          27.4498   -2.2511   -6.4238 N.am      6 UNK        -0.4434 
     40 CA         28.7060   -1.5451   -6.6792 C.3       6 UNK         0.0363 
     41 CB         28.9927   -0.6178   -5.4861 C.3       6 UNK        -0.1936 
     42 C          28.7243   -0.7722   -8.0114 C.2       6 UNK         0.5081 
     43 O          29.7331   -0.1335   -8.3145 O.2       6 UNK        -0.5248 
     44 N          27.6138   -0.8141   -8.7652 N.am      7 UNK        -0.4718 
     45 CA         27.3808   -0.1621  -10.0604 C.3       7 UNK         0.0273 
     46 CB         28.2579   -0.8055  -11.1554 C.3       7 UNK        -0.1935 
     47 C          27.5562    1.3632   -9.9681 C.2       7 UNK         0.5018 
     48 O          28.4083    1.9329  -10.6491 O.2       7 UNK        -0.5186 
     49 N          26.7864    1.9818   -9.0612 N.am      8 UNK        -0.4240 
     50 CA         26.8537    3.3980   -8.6694 C.3       8 UNK         0.0235 
     51 CB         26.3849    4.3104   -9.8227 C.3       8 UNK        -0.2000 
     52 C          28.2330    3.8010   -8.1042 C.2       8 UNK         0.4941 
     53 O          28.6836    4.9273   -8.3187 O.2       8 UNK        -0.5273 
     54 N          28.8715    2.8558   -7.3976 N.am      9 UNK        -0.4262 
     55 CA         30.2080    2.9258   -6.7965 C.3       9 UNK         0.0264 
     56 CB         30.2860    4.0319   -5.7224 C.3       9 UNK        -0.1955 
     57 C          31.3588    2.9997   -7.8202 C.2       9 UNK         0.5031 
     58 O          32.4557    3.4319   -7.4590 O.2       9 UNK        -0.5390 
     59 N          31.1287    2.5379   -9.0601 N.am      10 UNK        -0.4204 
     60 CA         32.1392    2.4734  -10.1230 C.3       10 UNK         0.0237 
     61 CB         31.4779    2.0811  -11.4527 C.3       10 UNK        -0.1985 
     62 C          33.3123    1.5278   -9.8099 C.2       10 UNK         0.4970 
     63 O          34.4100    1.7547  -10.3207 O.2       10 UNK        -0.4914 
     64 N          33.0771    0.5098   -8.9704 N.am      11 UNK        -0.4285 
     65 CA         34.1238   -0.3692   -8.4279 C.3       11 UNK         0.1007 
     66 C          35.0379    0.2849   -7.3463 C.2       11 UNK         0.5703 
     67 N          34.7619    1.4946   -6.8691 N.am      11 UNK        -0.7361 
     68 O          36.0326   -0.3145   -6.9443 O.2       11 UNK        -0.4986 
     69 C69        33.5483   -1.7381   -7.9812 C.3       12 UNK        -0.0947 
     70 S70        32.3852   -1.6365   -6.5799 S.3       12 UNK        -0.2240 
     71 C71        32.6846   -3.2439   -5.7895 C.3       12 UNK         0.0194 
     72 H72        27.4295   -3.1067   -0.9614 H         1 UNK         0.0906 
     73 H73        26.0990   -3.2356    0.1889 H         1 UNK         0.0906 
     74 H74        27.2882   -4.5256    0.0533 H         1 UNK         0.0906 
     75 H75        28.9893   -1.1872    1.8065 H         1 UNK         0.3140 
     76 H76        28.6555    0.3870    0.3689 H         1 UNK         0.1085 
     77 H77        28.9469   -1.7237   -1.8219 H         1 UNK         0.0836 
     78 H78        29.1356   -0.0115   -2.0134 H         1 UNK         0.0836 
     79 H79        30.8043   -3.1924   -0.1622 H         1 UNK         0.0731 
     80 H80        32.4351   -2.8268   -0.6632 H         1 UNK         0.0731 
     81 H81        32.8733   -2.3973   -3.2036 H         1 UNK         0.1312 
     82 H82        30.3270   -4.6166   -5.8483 H         1 UNK         0.1406 
     83 H83        29.3220   -4.2737   -1.6993 H         1 UNK         0.1631 
     84 H84        28.3849   -6.1703   -3.3207 H         1 UNK         0.0717 
     85 H85        28.4397   -5.7751   -5.0202 H         1 UNK         0.0717 
     86 H86        26.2233   -5.9452   -5.4498 H         1 UNK         0.0934 
     87 H87        24.8710   -5.1149   -4.7801 H         1 UNK         0.0934 
     88 H88        25.5031   -4.7548   -7.2571 H         1 UNK         0.0739 
     89 H89        24.7246   -2.5043   -5.4990 H         1 UNK         0.3093 
     90 H90        22.6150   -1.1878   -8.0848 H         1 UNK         0.0818 
     91 H91        21.2189   -3.0034   -7.0817 H         1 UNK         0.0819 
     92 H92        21.8300   -2.6102   -5.4810 H         1 UNK         0.0819 
     93 H93        20.8455   -1.4448   -6.3671 H         1 UNK         0.0819 
     94 H94        23.0017   -0.4179   -5.3611 H         1 UNK         0.3041 
     95 H95        25.8482    1.5976   -5.8067 H         1 UNK         0.0784 
     96 H96        24.0370    3.0396   -6.8406 H         1 UNK         0.0793 
     97 H97        22.9560    2.5821   -5.5367 H         1 UNK         0.0793 
     98 H98        24.4204    3.5027   -5.1913 H         1 UNK         0.0793 
     99 H99        24.1318    1.5404   -3.6127 H         1 UNK         0.3024 
    100 H100       24.6641    0.5110   -1.7462 H         1 UNK         0.1171 
    101 H101       23.2297   -1.4622   -2.3792 H         1 UNK         0.0786 
    102 H102       24.6481   -2.5039   -2.3897 H         1 UNK         0.0786 
    103 H103       24.0950   -1.7755   -0.8837 H         1 UNK         0.0786 
    104 H104       27.1093   -0.9411   -2.3459 H         1 UNK         0.2977 
    105 H105       26.8254   -1.8129   -5.7489 H         1 UNK         0.3127 
    106 H106       29.5088   -2.2816   -6.7322 H         1 UNK         0.0770 
    107 H107       28.2649    0.1906   -5.4135 H         1 UNK         0.0814 
    108 H108       29.9822   -0.1703   -5.5686 H         1 UNK         0.0814 
    109 H109       28.9772   -1.1726   -4.5475 H         1 UNK         0.0814 
    110 H110       26.8243   -1.3190   -8.3866 H         1 UNK         0.2983 
    111 H111       26.3362   -0.3401  -10.3220 H         1 UNK         0.0947 
    112 H112       29.3213   -0.6712  -10.9560 H         1 UNK         0.0806 
    113 H113       28.0517   -0.3631  -12.1307 H         1 UNK         0.0806 
    114 H114       28.0665   -1.8754  -11.2367 H         1 UNK         0.0806 
    115 H115       26.1050    1.4084   -8.5629 H         1 UNK         0.3000 
    116 H116       26.1495    3.5225   -7.8470 H         1 UNK         0.0850 
    117 H117       26.3048    5.3472   -9.4938 H         1 UNK         0.0810 
    118 H118       25.4032    4.0119  -10.1904 H         1 UNK         0.0810 
    119 H119       27.0792    4.2898  -10.6633 H         1 UNK         0.0810 
    120 H120       28.4246    1.9523   -7.3370 H         1 UNK         0.3040 
    121 H121       30.3494    1.9756   -6.2834 H         1 UNK         0.0766 
    122 H122       30.2431    5.0286   -6.1621 H         1 UNK         0.0812 
    123 H123       31.2193    3.9671   -5.1617 H         1 UNK         0.0812 
    124 H124       29.4721    3.9454   -5.0027 H         1 UNK         0.0812 
    125 H125       30.2114    2.1670   -9.2829 H         1 UNK         0.3205 
    126 H126       32.5568    3.4760  -10.2367 H         1 UNK         0.0754 
    127 H127       32.2121    2.0322  -12.2581 H         1 UNK         0.0769 
    128 H128       30.7236    2.8100  -11.7494 H         1 UNK         0.0769 
    129 H129       30.9961    1.1049  -11.3891 H         1 UNK         0.0769 
    130 H130       32.1445    0.3779   -8.6000 H         1 UNK         0.2981 
    131 H131       34.7985   -0.5909   -9.2570 H         1 UNK         0.0541 
    132 H132       35.3726    1.8962   -6.1762 H         1 UNK         0.3459 
    133 H133       33.9565    2.0187   -7.1904 H         1 UNK         0.3459 
    134 H134       34.3640   -2.4161   -7.7236 H         1 UNK         0.0612 
    135 H135       33.0267   -2.2090   -8.8157 H         1 UNK         0.0612 
    136 H136       33.7112   -3.2784   -5.4219 H         1 UNK         0.0624 
    137 H137       32.5965   -4.0333   -6.5376 H         1 UNK         0.0624 
@<TRIPOS>BOND
     1    1    2 1    
     2    1   72 1    
     3    1   73 1    
     4    1   74 1    
     5    2    3 2    
     6    2    4 am   BACKBONE|DICT|INTERRES
     7    4    5 1    
     8    4   75 1    
     9    5    6 1    
    10    5   35 1    
    11    5   76 1    
    12    6    7 1    
    13    6   77 1    
    14    6   78 1    
    15    7    8 1    
    16    8    9 1    
    17    8   79 1    
    18    8   80 1    
    19    9   10 ar   
    20    9   14 ar   
    21   10   11 ar   
    22   10   81 1    
    23   11   12 ar   
    24   11   71 1    
    25   12   13 ar   
    26   12   82 1    
    27   13   14 ar   
    28   13   15 1    
    29   14   83 1    
    30   15   16 1    
    31   15   84 1    
    32   15   85 1    
    33   16   17 1    
    34   17   18 1    
    35   17   86 1    
    36   17   87 1    
    37   18   19 1    
    38   18   37 1    
    39   18   88 1    
    40   19   20 am   BACKBONE|DICT|INTERRES
    41   19   89 1    
    42   20   21 2    
    43   20   22 1    
    44   22   23 1    
    45   22   24 1    
    46   22   90 1    
    47   23   91 1    
    48   23   92 1    
    49   23   93 1    
    50   24   25 am   BACKBONE|DICT|INTERRES
    51   24   94 1    
    52   25   26 2    
    53   25   27 1    
    54   27   28 1    
    55   27   29 1    
    56   27   95 1    
    57   28   96 1    
    58   28   97 1    
    59   28   98 1    
    60   29   30 am   BACKBONE|DICT|INTERRES
    61   29   99 1    
    62   30   31 2    
    63   30   32 1    
    64   32   33 1    
    65   32   34 1    
    66   32  100 1    
    67   33  101 1    
    68   33  102 1    
    69   33  103 1    
    70   34   35 am   BACKBONE|DICT|INTERRES
    71   34  104 1    
    72   35   36 2    
    73   37   38 2    
    74   37   39 am   BACKBONE|DICT|INTERRES
    75   39   40 1    
    76   39  105 1    
    77   40   41 1    
    78   40   42 1    
    79   40  106 1    
    80   41  107 1    
    81   41  108 1    
    82   41  109 1    
    83   42   43 2    
    84   42   44 am   BACKBONE|DICT|INTERRES
    85   44   45 1    
    86   44  110 1    
    87   45   46 1    
    88   45   47 1    
    89   45  111 1    
    90   46  112 1    
    91   46  113 1    
    92   46  114 1    
    93   47   48 2    
    94   47   49 am   BACKBONE|DICT|INTERRES
    95   49   50 1    
    96   49  115 1    
    97   50   51 1    
    98   50   52 1    
    99   50  116 1    
   100   51  117 1    
   101   51  118 1    
   102   51  119 1    
   103   52   53 2    
   104   52   54 am   BACKBONE|DICT|INTERRES
   105   54   55 1    
   106   54  120 1    
   107   55   56 1    
   108   55   57 1    
   109   55  121 1    
   110   56  122 1    
   111   56  123 1    
   112   56  124 1    
   113   57   58 2    
   114   57   59 am   BACKBONE|DICT|INTERRES
   115   59   60 1    
   116   59  125 1    
   117   60   61 1    
   118   60   62 1    
   119   60  126 1    
   120   61  127 1    
   121   61  128 1    
   122   61  129 1    
   123   62   63 2    
   124   62   64 am   BACKBONE|DICT|INTERRES
   125   64   65 1    
   126   64  130 1    
   127   65   66 1    
   128   65   69 1    
   129   65  131 1    
   130   66   67 am   BACKBONE|DICT|INTERRES
   131   66   68 2    
   132   67  132 1    
   133   67  133 1    
   134   69   70 1    
   135   69  134 1    
   136   69  135 1    
   137   70   71 1    
   138   71  136 1    
   139   71  137 1    
@<TRIPOS>SUBSTRUCTURE
     1 UNK         1 GROUP             0       ****    0 ROOT    
