@<TRIPOS>MOLECULE
3R137
137   139    1
SMALL
USER_CHARGES


@<TRIPOS>ATOM
      1 CA         26.1139   -7.3530   -3.1340 C.3       0 UNK        -0.2020 
      2 C          26.1354   -6.2822   -2.0546 C.2       0 UNK         0.4855 
      3 O          25.1438   -6.1093   -1.3446 O.2       0 UNK        -0.5197 
      4 N          27.2561   -5.5579   -1.9284 N.am      1 UNK        -0.4892 
      5 CA         27.4442   -4.4201   -1.0206 C.3       1 UNK         0.0835 
      6 C6         28.9027   -3.8593   -1.0269 C.3       12 UNK        -0.0855 
      7 S7         29.9372   -4.1944   -2.5074 S.3       12 UNK        -0.2931 
      8 C8         29.3134   -3.0561   -3.7875 C.3       12 UNK         0.0378 
      9 C9         29.7020   -1.6014   -3.5579 C.ar      12 UNK        -0.0802 
     10 C10        30.7977   -1.0510   -4.2290 C.ar      12 UNK        -0.0944 
     11 C11        31.1034    0.3103   -4.1045 C.ar      12 UNK        -0.0787 
     12 C12        30.2980    1.1208   -3.2988 C.ar      12 UNK        -0.0862 
     13 C13        29.1957    0.5838   -2.6289 C.ar      12 UNK        -0.0733 
     14 C14        28.9156   -0.7781   -2.7494 C.ar      12 UNK        -0.0832 
     15 C15        28.2742    1.4833   -1.8206 C.3       12 UNK         0.0240 
     16 S16        27.0679    2.3276   -2.8950 S.3       12 UNK        -0.2522 
     17 C17        25.9130    0.9818   -3.3452 C.3       12 UNK        -0.0967 
     18 CA         26.2487    0.3070   -4.7016 C.3       5 UNK         0.0660 
     19 N          25.5404   -0.9667   -4.8509 N.am      5 UNK        -0.4015 
     20 C          25.9317   -1.9833   -5.6335 C.2       4 UNK         0.4946 
     21 O          26.9398   -1.9360   -6.3418 O.2       4 UNK        -0.5353 
     22 CA         25.0691   -3.2587   -5.6296 C.3       4 UNK         0.0277 
     23 CB         25.9185   -4.5302   -5.8191 C.3       4 UNK        -0.1981 
     24 N          24.3040   -3.3871   -4.3879 N.am      4 UNK        -0.4209 
     25 C          22.9807   -3.5798   -4.3004 C.2       3 UNK         0.4942 
     26 O          22.2364   -3.6338   -5.2803 O.2       3 UNK        -0.5208 
     27 CA         22.3658   -3.7590   -2.8969 C.3       3 UNK         0.0250 
     28 CB         21.9315   -5.2192   -2.6861 C.3       3 UNK        -0.1990 
     29 N          23.2566   -3.3667   -1.8013 N.am      3 UNK        -0.4232 
     30 C          23.5373   -2.0996   -1.4638 C.2       2 UNK         0.4993 
     31 O          23.0376   -1.1198   -2.0170 O.2       2 UNK        -0.5286 
     32 CA         24.5908   -1.8808   -0.3580 C.3       2 UNK         0.0209 
     33 CB         23.9061   -1.7378    1.0107 C.3       2 UNK        -0.1931 
     34 N          25.6313   -2.9176   -0.2740 N.am      2 UNK        -0.4546 
     35 C          26.4007   -3.3190   -1.2960 C.2       1 UNK         0.5154 
     36 O          26.2841   -2.8726   -2.4357 O.2       1 UNK        -0.5181 
     37 C          26.0341    1.2098   -5.9350 C.2       5 UNK         0.5014 
     38 O          25.3104    2.2047   -5.8680 O.2       5 UNK        -0.5248 
     39 N          26.6747    0.8286   -7.0468 N.am      6 UNK        -0.4434 
     40 CA         26.7083    1.5676   -8.3117 C.3       6 UNK         0.0363 
     41 CB         26.6673    0.5641   -9.4770 C.3       6 UNK        -0.1936 
     42 C          27.9258    2.5104   -8.4138 C.2       6 UNK         0.5081 
     43 O          28.1839    3.0421   -9.4953 O.2       6 UNK        -0.5248 
     44 N          28.6553    2.7003   -7.3015 N.am      7 UNK        -0.4718 
     45 CA         29.8100    3.5895   -7.1276 C.3       7 UNK         0.0273 
     46 CB         29.3482    5.0641   -7.1094 C.3       7 UNK        -0.1935 
     47 C          30.9214    3.2879   -8.1489 C.2       7 UNK         0.5018 
     48 O          31.4621    2.1817   -8.1287 O.2       7 UNK        -0.5186 
     49 N          31.2188    4.2351   -9.0484 N.am      8 UNK        -0.4240 
     50 CA         32.2255    4.1100  -10.1079 C.3       8 UNK         0.0235 
     51 CB         32.3041    5.4307  -10.8902 C.3       8 UNK        -0.2000 
     52 C          32.0010    2.9281  -11.0703 C.2       8 UNK         0.4941 
     53 O          32.9764    2.4163  -11.6189 O.2       8 UNK        -0.5273 
     54 N          30.7449    2.4902  -11.2399 N.am      9 UNK        -0.4262 
     55 CA         30.4000    1.3067  -12.0305 C.3       9 UNK         0.0264 
     56 CB         28.9654    1.4524  -12.5611 C.3       9 UNK        -0.1955 
     57 C          30.5743   -0.0153  -11.2566 C.2       9 UNK         0.5031 
     58 O          30.5994   -1.0683  -11.8954 O.2       9 UNK        -0.5390 
     59 N          30.6870    0.0431   -9.9209 N.am      10 UNK        -0.4204 
     60 CA         30.8944   -1.1184   -9.0538 C.3       10 UNK         0.0237 
     61 CB         30.0191   -0.9979   -7.7934 C.3       10 UNK        -0.1985 
     62 C          32.3758   -1.2756   -8.6831 C.2       10 UNK         0.4970 
     63 O          32.9282   -2.3605   -8.8687 O.2       10 UNK        -0.4914 
     64 N          32.9878   -0.2008   -8.1698 N.am      11 UNK        -0.4285 
     65 CA         34.3926   -0.1703   -7.7256 C.3       11 UNK         0.1007 
     66 C          35.3978    0.2551   -8.8334 C.2       11 UNK         0.5703 
     67 N          34.9628    0.6789  -10.0131 N.am      11 UNK        -0.7361 
     68 O          36.6065    0.1802   -8.6245 O.2       11 UNK        -0.4986 
     69 C69        34.5688    0.6826   -6.4394 C.3       12 UNK        -0.0947 
     70 S70        33.7412   -0.0681   -4.9966 S.3       12 UNK        -0.2240 
     71 C71        32.2300    0.9427   -4.9125 C.3       12 UNK         0.0194 
     72 H72        25.9832   -8.3367   -2.6839 H         1 UNK         0.0906 
     73 H73        25.2833   -7.1774   -3.8172 H         1 UNK         0.0906 
     74 H74        27.0350   -7.3639   -3.7164 H         1 UNK         0.0906 
     75 H75        28.0395   -5.7302   -2.5438 H         1 UNK         0.3140 
     76 H76        27.2464   -4.7996   -0.0155 H         1 UNK         0.1085 
     77 H77        29.4375   -4.3259   -0.1981 H         1 UNK         0.0836 
     78 H78        28.9382   -2.7946   -0.7923 H         1 UNK         0.0836 
     79 H79        28.2350   -3.1505   -3.8848 H         1 UNK         0.0731 
     80 H80        29.7092   -3.3859   -4.7493 H         1 UNK         0.0731 
     81 H81        31.3927   -1.6776   -4.8787 H         1 UNK         0.1312 
     82 H82        30.5030    2.1800   -3.2217 H         1 UNK         0.1406 
     83 H83        28.0478   -1.1804   -2.2539 H         1 UNK         0.1631 
     84 H84        28.8665    2.2355   -1.2974 H         1 UNK         0.0717 
     85 H85        27.7518    0.9164   -1.0482 H         1 UNK         0.0717 
     86 H86        25.9309    0.2377   -2.5484 H         1 UNK         0.0934 
     87 H87        24.8957    1.3781   -3.3503 H         1 UNK         0.0934 
     88 H88        27.3140    0.0757   -4.6891 H         1 UNK         0.0739 
     89 H89        24.6896   -1.0733   -4.3175 H         1 UNK         0.3093 
     90 H90        24.3954   -3.1683   -6.4838 H         1 UNK         0.0818 
     91 H91        26.6357   -4.6566   -5.0077 H         1 UNK         0.0819 
     92 H92        25.2921   -5.4214   -5.8544 H         1 UNK         0.0819 
     93 H93        26.4812   -4.4958   -6.7529 H         1 UNK         0.0819 
     94 H94        24.8575   -3.3106   -3.5359 H         1 UNK         0.3041 
     95 H95        21.4736   -3.1306   -2.8533 H         1 UNK         0.0784 
     96 H96        21.2190   -5.5299   -3.4516 H         1 UNK         0.0793 
     97 H97        22.7794   -5.9034   -2.7347 H         1 UNK         0.0793 
     98 H98        21.4454   -5.3543   -1.7198 H         1 UNK         0.0793 
     99 H99        23.7429   -4.1146   -1.3222 H         1 UNK         0.3024 
    100 H100       25.0942   -0.9389   -0.5843 H         1 UNK         0.1171 
    101 H101       24.6208   -1.4629    1.7867 H         1 UNK         0.0786 
    102 H102       23.1432   -0.9580    0.9867 H         1 UNK         0.0786 
    103 H103       23.4164   -2.6634    1.3157 H         1 UNK         0.0786 
    104 H104       25.7620   -3.3466    0.6313 H         1 UNK         0.2977 
    105 H105       27.1619   -0.0635   -7.0178 H         1 UNK         0.3127 
    106 H106       25.8163    2.1934   -8.3831 H         1 UNK         0.0770 
    107 H107       27.6160    0.0433   -9.6052 H         1 UNK         0.0814 
    108 H108       26.4442    1.0748  -10.4136 H         1 UNK         0.0814 
    109 H109       25.8887   -0.1852   -9.3330 H         1 UNK         0.0814 
    110 H110       28.3762    2.1864   -6.4788 H         1 UNK         0.2983 
    111 H111       30.2346    3.3630   -6.1482 H         1 UNK         0.0947 
    112 H112       30.1847    5.7404   -6.9274 H         1 UNK         0.0806 
    113 H113       28.6269    5.2333   -6.3096 H         1 UNK         0.0806 
    114 H114       28.8715    5.3616   -8.0442 H         1 UNK         0.0806 
    115 H115       30.7005    5.1008   -9.0151 H         1 UNK         0.3000 
    116 H116       33.1883    3.9433   -9.6198 H         1 UNK         0.0850 
    117 H117       33.0650    5.3776  -11.6704 H         1 UNK         0.0810 
    118 H118       32.5695    6.2640  -10.2393 H         1 UNK         0.0810 
    119 H119       31.3566    5.6695  -11.3751 H         1 UNK         0.0810 
    120 H120       29.9879    2.9429  -10.7377 H         1 UNK         0.3040 
    121 H121       31.0637    1.2554  -12.8966 H         1 UNK         0.0766 
    122 H122       28.8703    2.3252  -13.2072 H         1 UNK         0.0812 
    123 H123       28.2463    1.5586  -11.7516 H         1 UNK         0.0812 
    124 H124       28.6719    0.5814  -13.1487 H         1 UNK         0.0812 
    125 H125       30.7305    0.9516   -9.4704 H         1 UNK         0.3205 
    126 H126       30.5890   -2.0302   -9.5717 H         1 UNK         0.0754 
    127 H127       30.2133   -1.8193   -7.1027 H         1 UNK         0.0769 
    128 H128       28.9612   -1.0454   -8.0449 H         1 UNK         0.0769 
    129 H129       30.1929   -0.0676   -7.2532 H         1 UNK         0.0769 
    130 H130       32.4688    0.6692   -8.0752 H         1 UNK         0.2981 
    131 H131       34.6891   -1.1883   -7.4657 H         1 UNK         0.0541 
    132 H132       33.9785    0.7764  -10.2071 H         1 UNK         0.3459 
    133 H133       35.6343    0.9447  -10.7153 H         1 UNK         0.3459 
    134 H134       35.6245    0.7753   -6.1780 H         1 UNK         0.0612 
    135 H135       34.2056    1.7001   -6.5959 H         1 UNK         0.0612 
    136 H136       31.8534    1.1015   -5.9186 H         1 UNK         0.0624 
    137 H137       32.4918    1.9250   -4.5164 H         1 UNK         0.0624 
@<TRIPOS>BOND
     1    1    2 1    
     2    1   72 1    
     3    1   73 1    
     4    1   74 1    
     5    2    3 2    
     6    2    4 am   BACKBONE|DICT|INTERRES
     7    4    5 1    
     8    4   75 1    
     9    5    6 1    
    10    5   35 1    
    11    5   76 1    
    12    6    7 1    
    13    6   77 1    
    14    6   78 1    
    15    7    8 1    
    16    8    9 1    
    17    8   79 1    
    18    8   80 1    
    19    9   10 ar   
    20    9   14 ar   
    21   10   11 ar   
    22   10   81 1    
    23   11   12 ar   
    24   11   71 1    
    25   12   13 ar   
    26   12   82 1    
    27   13   14 ar   
    28   13   15 1    
    29   14   83 1    
    30   15   16 1    
    31   15   84 1    
    32   15   85 1    
    33   16   17 1    
    34   17   18 1    
    35   17   86 1    
    36   17   87 1    
    37   18   19 1    
    38   18   37 1    
    39   18   88 1    
    40   19   20 am   BACKBONE|DICT|INTERRES
    41   19   89 1    
    42   20   21 2    
    43   20   22 1    
    44   22   23 1    
    45   22   24 1    
    46   22   90 1    
    47   23   91 1    
    48   23   92 1    
    49   23   93 1    
    50   24   25 am   BACKBONE|DICT|INTERRES
    51   24   94 1    
    52   25   26 2    
    53   25   27 1    
    54   27   28 1    
    55   27   29 1    
    56   27   95 1    
    57   28   96 1    
    58   28   97 1    
    59   28   98 1    
    60   29   30 am   BACKBONE|DICT|INTERRES
    61   29   99 1    
    62   30   31 2    
    63   30   32 1    
    64   32   33 1    
    65   32   34 1    
    66   32  100 1    
    67   33  101 1    
    68   33  102 1    
    69   33  103 1    
    70   34   35 am   BACKBONE|DICT|INTERRES
    71   34  104 1    
    72   35   36 2    
    73   37   38 2    
    74   37   39 am   BACKBONE|DICT|INTERRES
    75   39   40 1    
    76   39  105 1    
    77   40   41 1    
    78   40   42 1    
    79   40  106 1    
    80   41  107 1    
    81   41  108 1    
    82   41  109 1    
    83   42   43 2    
    84   42   44 am   BACKBONE|DICT|INTERRES
    85   44   45 1    
    86   44  110 1    
    87   45   46 1    
    88   45   47 1    
    89   45  111 1    
    90   46  112 1    
    91   46  113 1    
    92   46  114 1    
    93   47   48 2    
    94   47   49 am   BACKBONE|DICT|INTERRES
    95   49   50 1    
    96   49  115 1    
    97   50   51 1    
    98   50   52 1    
    99   50  116 1    
   100   51  117 1    
   101   51  118 1    
   102   51  119 1    
   103   52   53 2    
   104   52   54 am   BACKBONE|DICT|INTERRES
   105   54   55 1    
   106   54  120 1    
   107   55   56 1    
   108   55   57 1    
   109   55  121 1    
   110   56  122 1    
   111   56  123 1    
   112   56  124 1    
   113   57   58 2    
   114   57   59 am   BACKBONE|DICT|INTERRES
   115   59   60 1    
   116   59  125 1    
   117   60   61 1    
   118   60   62 1    
   119   60  126 1    
   120   61  127 1    
   121   61  128 1    
   122   61  129 1    
   123   62   63 2    
   124   62   64 am   BACKBONE|DICT|INTERRES
   125   64   65 1    
   126   64  130 1    
   127   65   66 1    
   128   65   69 1    
   129   65  131 1    
   130   66   67 am   BACKBONE|DICT|INTERRES
   131   66   68 2    
   132   67  132 1    
   133   67  133 1    
   134   69   70 1    
   135   69  134 1    
   136   69  135 1    
   137   70   71 1    
   138   71  136 1    
   139   71  137 1    
@<TRIPOS>SUBSTRUCTURE
     1 UNK         1 GROUP             0       ****    0 ROOT    
