@<TRIPOS>MOLECULE
3R137
137   139    1
SMALL
USER_CHARGES


@<TRIPOS>ATOM
      1 CA         24.5403   -5.8189   -4.4868 C.3       0 UNK        -0.2020 
      2 C          24.7952   -5.0220   -3.2170 C.2       0 UNK         0.4855 
      3 O          23.8957   -4.3364   -2.7298 O.2       0 UNK        -0.5197 
      4 N          26.0193   -5.0911   -2.6809 N.am      1 UNK        -0.4892 
      5 CA         26.4740   -4.3435   -1.5044 C.3       1 UNK         0.0835 
      6 C6         27.8598   -4.8160   -0.9903 C.3       12 UNK        -0.0855 
      7 S7         29.0758   -5.2129   -2.2985 S.3       12 UNK        -0.2931 
      8 C8         30.6102   -4.5068   -1.6247 C.3       12 UNK         0.0378 
      9 C9         30.9431   -3.1709   -2.2693 C.ar      12 UNK        -0.0802 
     10 C10        31.5578   -3.1485   -3.5222 C.ar      12 UNK        -0.0944 
     11 C11        31.9298   -1.9391   -4.1120 C.ar      12 UNK        -0.0787 
     12 C12        31.6837   -0.7385   -3.4380 C.ar      12 UNK        -0.0862 
     13 C13        31.0632   -0.7456   -2.1818 C.ar      12 UNK        -0.0733 
     14 C14        30.6874   -1.9665   -1.6075 C.ar      12 UNK        -0.0832 
     15 C15        30.8439    0.5514   -1.4068 C.3       12 UNK         0.0240 
     16 S16        29.9841    1.8487   -2.3570 S.3       12 UNK        -0.2522 
     17 C17        28.4391    1.0094   -2.8357 C.3       12 UNK        -0.0967 
     18 CA         28.3338    0.8679   -4.3755 C.3       5 UNK         0.0660 
     19 N          27.6814   -0.3825   -4.7656 N.am      5 UNK        -0.4015 
     20 C          27.5540   -0.8209   -6.0255 C.2       4 UNK         0.4946 
     21 O          28.0290   -0.2475   -7.0077 O.2       4 UNK        -0.5353 
     22 CA         26.6882   -2.0743   -6.2239 C.3       4 UNK         0.0277 
     23 CB         27.4976   -3.3528   -5.9500 C.3       4 UNK        -0.1981 
     24 N          25.4912   -2.0378   -5.3765 N.am      4 UNK        -0.4209 
     25 C          24.4677   -1.1897   -5.5645 C.2       3 UNK         0.4942 
     26 O          24.3946   -0.4110   -6.5121 O.2       3 UNK        -0.5208 
     27 CA         23.3671   -1.1546   -4.4930 C.3       3 UNK         0.0250 
     28 CB         22.2924   -2.2163   -4.7732 C.3       3 UNK        -0.1990 
     29 N          23.9046   -1.3102   -3.1389 N.am      3 UNK        -0.4232 
     30 C          24.6470   -0.3719   -2.5284 C.2       2 UNK         0.4993 
     31 O          24.9058    0.7201   -3.0314 O.2       2 UNK        -0.5286 
     32 CA         25.2489   -0.7115   -1.1532 C.3       2 UNK         0.0209 
     33 CB         24.3073   -0.2557   -0.0276 C.3       2 UNK        -0.1931 
     34 N          25.5634   -2.1319   -0.9829 N.am      2 UNK        -0.4546 
     35 C          26.4105   -2.8240   -1.7570 C.2       1 UNK         0.5154 
     36 O          27.0603   -2.3176   -2.6746 O.2       1 UNK        -0.5181 
     37 C          27.6709    2.1091   -5.0154 C.2       5 UNK         0.5014 
     38 O          28.3774    3.0197   -5.4443 O.2       5 UNK        -0.5248 
     39 N          26.3328    2.1223   -5.0824 N.am      6 UNK        -0.4434 
     40 CA         25.5530    3.1680   -5.7413 C.3       6 UNK         0.0363 
     41 CB         24.0907    3.0946   -5.2714 C.3       6 UNK        -0.1936 
     42 C          25.6369    3.0967   -7.2756 C.2       6 UNK         0.5081 
     43 O          25.8831    4.1222   -7.9114 O.2       6 UNK        -0.5248 
     44 N          25.3891    1.9091   -7.8462 N.am      7 UNK        -0.4718 
     45 CA         25.2585    1.7095   -9.2912 C.3       7 UNK         0.0273 
     46 CB         24.5016    0.4010   -9.5719 C.3       7 UNK        -0.1935 
     47 C          26.5962    1.7232  -10.0429 C.2       7 UNK         0.5018 
     48 O          26.6892    2.3834  -11.0792 O.2       7 UNK        -0.5186 
     49 N          27.5875    0.9764   -9.5399 N.am      8 UNK        -0.4240 
     50 CA         28.8894    0.8111  -10.1861 C.3       8 UNK         0.0235 
     51 CB         29.3221   -0.6644  -10.1304 C.3       8 UNK        -0.2000 
     52 C          29.9460    1.7092   -9.5392 C.2       8 UNK         0.4941 
     53 O          30.6790    2.3838  -10.2644 O.2       8 UNK        -0.5273 
     54 N          30.0223    1.6891   -8.1989 N.am      9 UNK        -0.4262 
     55 CA         30.9953    2.3774   -7.3327 C.3       9 UNK         0.0264 
     56 CB         30.9126    3.9108   -7.4776 C.3       9 UNK        -0.1955 
     57 C          32.4385    1.8743   -7.5092 C.2       9 UNK         0.5031 
     58 O          33.0408    1.4052   -6.5442 O.2       9 UNK        -0.5390 
     59 N          32.9519    1.9441   -8.7407 N.am      10 UNK        -0.4204 
     60 CA         34.1801    1.3002   -9.1917 C.3       10 UNK         0.0237 
     61 CB         34.8943    2.2264  -10.1934 C.3       10 UNK        -0.1985 
     62 C          33.7822   -0.0489   -9.8073 C.2       10 UNK         0.4970 
     63 O          33.6972   -0.1685  -11.0309 O.2       10 UNK        -0.4914 
     64 N          33.4635   -1.0092   -8.9320 N.am      11 UNK        -0.4285 
     65 CA         32.9526   -2.3459   -9.2685 C.3       11 UNK         0.1007 
     66 C          33.9012   -3.1599  -10.1927 C.2       11 UNK         0.5703 
     67 N          33.3533   -3.9308  -11.1225 N.am      11 UNK        -0.7361 
     68 O          35.1216   -3.1331  -10.0416 O.2       11 UNK        -0.4986 
     69 C69        32.6181   -3.1643   -7.9953 C.3       12 UNK        -0.0947 
     70 S70        31.5052   -2.3048   -6.8264 S.3       12 UNK        -0.2240 
     71 C71        32.6480   -1.9562   -5.4504 C.3       12 UNK         0.0194 
     72 H72        24.3293   -5.1462   -5.3176 H         1 UNK         0.0906 
     73 H73        25.3966   -6.4360   -4.7587 H         1 UNK         0.0906 
     74 H74        23.6803   -6.4742   -4.3514 H         1 UNK         0.0906 
     75 H75        26.7417   -5.6360   -3.1323 H         1 UNK         0.3140 
     76 H76        25.7586   -4.5665   -0.7093 H         1 UNK         0.1085 
     77 H77        27.7254   -5.7275   -0.4057 H         1 UNK         0.0836 
     78 H78        28.2775   -4.0888   -0.2913 H         1 UNK         0.0836 
     79 H79        31.4238   -5.2080   -1.8167 H         1 UNK         0.0731 
     80 H80        30.5521   -4.4148   -0.5393 H         1 UNK         0.0731 
     81 H81        31.7599   -4.0786   -4.0362 H         1 UNK         0.1312 
     82 H82        31.9875    0.1995   -3.8836 H         1 UNK         0.1406 
     83 H83        30.2187   -1.9836   -0.6331 H         1 UNK         0.1631 
     84 H84        31.8142    0.9368   -1.0912 H         1 UNK         0.0717 
     85 H85        30.2774    0.3653   -0.4930 H         1 UNK         0.0717 
     86 H86        28.4178    0.0285   -2.3591 H         1 UNK         0.0934 
     87 H87        27.5895    1.5509   -2.4144 H         1 UNK         0.0934 
     88 H88        29.3421    0.7962   -4.7889 H         1 UNK         0.0739 
     89 H89        27.3219   -0.9665   -4.0151 H         1 UNK         0.3093 
     90 H90        26.3665   -2.0935   -7.2675 H         1 UNK         0.0818 
     91 H91        28.3698   -3.4040   -6.6035 H         1 UNK         0.0819 
     92 H92        27.8643   -3.3970   -4.9239 H         1 UNK         0.0819 
     93 H93        26.9028   -4.2473   -6.1333 H         1 UNK         0.0819 
     94 H94        25.5118   -2.5931   -4.5332 H         1 UNK         0.3041 
     95 H95        22.8859   -0.1755   -4.5484 H         1 UNK         0.0784 
     96 H96        21.8183   -2.0388   -5.7395 H         1 UNK         0.0793 
     97 H97        22.7073   -3.2232   -4.7995 H         1 UNK         0.0793 
     98 H98        21.5063   -2.1960   -4.0183 H         1 UNK         0.0793 
     99 H99        23.7671   -2.2096   -2.6895 H         1 UNK         0.3024 
    100 H100       26.1835   -0.1543   -1.0631 H         1 UNK         0.1171 
    101 H101       24.7602   -0.4017    0.9533 H         1 UNK         0.0786 
    102 H102       24.0755    0.8065   -0.1199 H         1 UNK         0.0786 
    103 H103       23.3613   -0.7984   -0.0466 H         1 UNK         0.0786 
    104 H104       25.0433   -2.6233   -0.2697 H         1 UNK         0.2977 
    105 H105       25.8103    1.3909   -4.6081 H         1 UNK         0.3127 
    106 H106       25.9535    4.1359   -5.4316 H         1 UNK         0.0770 
    107 H107       23.6322    2.1368   -5.5197 H         1 UNK         0.0814 
    108 H108       23.4903    3.8758   -5.7394 H         1 UNK         0.0814 
    109 H109       24.0151    3.2293   -4.1922 H         1 UNK         0.0814 
    110 H110       25.1617    1.1101   -7.2569 H         1 UNK         0.2983 
    111 H111       24.6546    2.5287   -9.6885 H         1 UNK         0.0947 
    112 H112       25.0381   -0.4675   -9.1877 H         1 UNK         0.0806 
    113 H113       24.3624    0.2512  -10.6434 H         1 UNK         0.0806 
    114 H114       23.5119    0.4102   -9.1149 H         1 UNK         0.0806 
    115 H115       27.4621    0.5096   -8.6445 H         1 UNK         0.3000 
    116 H116       28.8218    1.0878  -11.2407 H         1 UNK         0.0850 
    117 H117       30.2599   -0.8077  -10.6681 H         1 UNK         0.0810 
    118 H118       28.5798   -1.3121  -10.5967 H         1 UNK         0.0810 
    119 H119       29.4753   -1.0138   -9.1087 H         1 UNK         0.0810 
    120 H120       29.3779    1.0708   -7.7126 H         1 UNK         0.3040 
    121 H121       30.7079    2.1300   -6.3106 H         1 UNK         0.0766 
    122 H122       29.8969    4.2684   -7.3090 H         1 UNK         0.0812 
    123 H123       31.2254    4.2538   -8.4639 H         1 UNK         0.0812 
    124 H124       31.5540    4.4025   -6.7455 H         1 UNK         0.0812 
    125 H125       32.3182    2.2687   -9.4707 H         1 UNK         0.3205 
    126 H126       34.8539    1.1176   -8.3517 H         1 UNK         0.0754 
    127 H127       35.8015    1.7584  -10.5779 H         1 UNK         0.0769 
    128 H128       35.1874    3.1644   -9.7217 H         1 UNK         0.0769 
    129 H129       34.2615    2.4677  -11.0487 H         1 UNK         0.0769 
    130 H130       33.5316   -0.8034   -7.9462 H         1 UNK         0.2981 
    131 H131       32.0208   -2.1858   -9.8127 H         1 UNK         0.0541 
    132 H132       32.3535   -3.9725  -11.2449 H         1 UNK         0.3459 
    133 H133       33.9533   -4.4782  -11.7196 H         1 UNK         0.3459 
    134 H134       32.1250   -4.0971   -8.2751 H         1 UNK         0.0612 
    135 H135       33.5365   -3.4602   -7.4860 H         1 UNK         0.0612 
    136 H136       33.4287   -2.7160   -5.4026 H         1 UNK         0.0624 
    137 H137       33.1576   -1.0106   -5.6309 H         1 UNK         0.0624 
@<TRIPOS>BOND
     1    1    2 1    
     2    1   72 1    
     3    1   73 1    
     4    1   74 1    
     5    2    3 2    
     6    2    4 am   BACKBONE|DICT|INTERRES
     7    4    5 1    
     8    4   75 1    
     9    5    6 1    
    10    5   35 1    
    11    5   76 1    
    12    6    7 1    
    13    6   77 1    
    14    6   78 1    
    15    7    8 1    
    16    8    9 1    
    17    8   79 1    
    18    8   80 1    
    19    9   10 ar   
    20    9   14 ar   
    21   10   11 ar   
    22   10   81 1    
    23   11   12 ar   
    24   11   71 1    
    25   12   13 ar   
    26   12   82 1    
    27   13   14 ar   
    28   13   15 1    
    29   14   83 1    
    30   15   16 1    
    31   15   84 1    
    32   15   85 1    
    33   16   17 1    
    34   17   18 1    
    35   17   86 1    
    36   17   87 1    
    37   18   19 1    
    38   18   37 1    
    39   18   88 1    
    40   19   20 am   BACKBONE|DICT|INTERRES
    41   19   89 1    
    42   20   21 2    
    43   20   22 1    
    44   22   23 1    
    45   22   24 1    
    46   22   90 1    
    47   23   91 1    
    48   23   92 1    
    49   23   93 1    
    50   24   25 am   BACKBONE|DICT|INTERRES
    51   24   94 1    
    52   25   26 2    
    53   25   27 1    
    54   27   28 1    
    55   27   29 1    
    56   27   95 1    
    57   28   96 1    
    58   28   97 1    
    59   28   98 1    
    60   29   30 am   BACKBONE|DICT|INTERRES
    61   29   99 1    
    62   30   31 2    
    63   30   32 1    
    64   32   33 1    
    65   32   34 1    
    66   32  100 1    
    67   33  101 1    
    68   33  102 1    
    69   33  103 1    
    70   34   35 am   BACKBONE|DICT|INTERRES
    71   34  104 1    
    72   35   36 2    
    73   37   38 2    
    74   37   39 am   BACKBONE|DICT|INTERRES
    75   39   40 1    
    76   39  105 1    
    77   40   41 1    
    78   40   42 1    
    79   40  106 1    
    80   41  107 1    
    81   41  108 1    
    82   41  109 1    
    83   42   43 2    
    84   42   44 am   BACKBONE|DICT|INTERRES
    85   44   45 1    
    86   44  110 1    
    87   45   46 1    
    88   45   47 1    
    89   45  111 1    
    90   46  112 1    
    91   46  113 1    
    92   46  114 1    
    93   47   48 2    
    94   47   49 am   BACKBONE|DICT|INTERRES
    95   49   50 1    
    96   49  115 1    
    97   50   51 1    
    98   50   52 1    
    99   50  116 1    
   100   51  117 1    
   101   51  118 1    
   102   51  119 1    
   103   52   53 2    
   104   52   54 am   BACKBONE|DICT|INTERRES
   105   54   55 1    
   106   54  120 1    
   107   55   56 1    
   108   55   57 1    
   109   55  121 1    
   110   56  122 1    
   111   56  123 1    
   112   56  124 1    
   113   57   58 2    
   114   57   59 am   BACKBONE|DICT|INTERRES
   115   59   60 1    
   116   59  125 1    
   117   60   61 1    
   118   60   62 1    
   119   60  126 1    
   120   61  127 1    
   121   61  128 1    
   122   61  129 1    
   123   62   63 2    
   124   62   64 am   BACKBONE|DICT|INTERRES
   125   64   65 1    
   126   64  130 1    
   127   65   66 1    
   128   65   69 1    
   129   65  131 1    
   130   66   67 am   BACKBONE|DICT|INTERRES
   131   66   68 2    
   132   67  132 1    
   133   67  133 1    
   134   69   70 1    
   135   69  134 1    
   136   69  135 1    
   137   70   71 1    
   138   71  136 1    
   139   71  137 1    
@<TRIPOS>SUBSTRUCTURE
     1 UNK         1 GROUP             0       ****    0 ROOT    
