@<TRIPOS>MOLECULE
3R137
137   139    1
SMALL
USER_CHARGES


@<TRIPOS>ATOM
      1 CA         27.1265   -1.1969    1.9559 C.3       0 UNK        -0.2020 
      2 C          27.8512   -1.3402    0.6265 C.2       0 UNK         0.4855 
      3 O          28.6152   -0.4529    0.2443 O.2       0 UNK        -0.5197 
      4 N          27.6114   -2.4449   -0.0917 N.am      1 UNK        -0.4892 
      5 CA         28.2106   -2.7622   -1.3941 C.3       1 UNK         0.0835 
      6 C6         28.2202   -4.2923   -1.6541 C.3       12 UNK        -0.0855 
      7 S7         29.5591   -5.0862   -0.6898 S.3       12 UNK        -0.2931 
      8 C8         30.8536   -5.4683   -1.9303 C.3       12 UNK         0.0378 
      9 C9         30.9522   -4.4313   -3.0428 C.ar      12 UNK        -0.0802 
     10 C10        31.3904   -3.1314   -2.7719 C.ar      12 UNK        -0.0944 
     11 C11        31.3501   -2.1405   -3.7590 C.ar      12 UNK        -0.0787 
     12 C12        30.9190   -2.4876   -5.0474 C.ar      12 UNK        -0.0862 
     13 C13        30.5168   -3.7923   -5.3397 C.ar      12 UNK        -0.0733 
     14 C14        30.5387   -4.7611   -4.3359 C.ar      12 UNK        -0.0832 
     15 C15        30.0181   -4.1502   -6.7297 C.3       12 UNK         0.0240 
     16 S16        28.2006   -4.1085   -6.8081 S.3       12 UNK        -0.2522 
     17 C17        27.8861   -2.3143   -6.7431 C.3       12 UNK        -0.0967 
     18 CA         26.3924   -1.9864   -6.9827 C.3       5 UNK         0.0660 
     19 N          25.5599   -2.4667   -5.8765 N.am      5 UNK        -0.4015 
     20 C          24.2595   -2.7798   -5.9517 C.2       4 UNK         0.4946 
     21 O          23.5960   -2.6929   -6.9864 O.2       4 UNK        -0.5353 
     22 CA         23.5812   -3.2204   -4.6477 C.3       4 UNK         0.0277 
     23 CB         24.0698   -4.6138   -4.2155 C.3       4 UNK        -0.1981 
     24 N          23.8583   -2.2497   -3.5895 N.am      4 UNK        -0.4209 
     25 C          23.0485   -1.2362   -3.2485 C.2       3 UNK         0.4942 
     26 O          21.9165   -1.0762   -3.7061 O.2       3 UNK        -0.5208 
     27 CA         23.5965   -0.2143   -2.2322 C.3       3 UNK         0.0250 
     28 CB         23.2382   -0.6330   -0.7970 C.3       3 UNK        -0.1990 
     29 N          25.0465   -0.0370   -2.3348 N.am      3 UNK        -0.4232 
     30 C          25.6785    0.4933   -3.3920 C.2       2 UNK         0.4993 
     31 O          25.0938    1.0499   -4.3192 O.2       2 UNK        -0.5286 
     32 CA         27.2124    0.3535   -3.4448 C.3       2 UNK         0.0209 
     33 CB         27.8930    1.7099   -3.2030 C.3       2 UNK        -0.1931 
     34 N          27.7632   -0.6330   -2.5080 N.am      2 UNK        -0.4546 
     35 C          27.5333   -1.9533   -2.5182 C.2       1 UNK         0.5154 
     36 O          26.7748   -2.5024   -3.3204 O.2       1 UNK        -0.5181 
     37 C          26.1454   -0.4828   -7.2296 C.2       5 UNK         0.5014 
     38 O          27.0602    0.3313   -7.0814 O.2       5 UNK        -0.5248 
     39 N          24.9037   -0.1489   -7.6097 N.am      6 UNK        -0.4434 
     40 CA         24.3672    1.2073   -7.7852 C.3       6 UNK         0.0363 
     41 CB         22.8738    1.1058   -8.1358 C.3       6 UNK        -0.1936 
     42 C          25.1033    2.0921   -8.8096 C.2       6 UNK         0.5081 
     43 O          24.9301    3.3109   -8.7824 O.2       6 UNK        -0.5248 
     44 N          25.9196    1.4816   -9.6795 N.am      7 UNK        -0.4718 
     45 CA         26.8246    2.1650  -10.6060 C.3       7 UNK         0.0273 
     46 CB         27.4065    1.1347  -11.5882 C.3       7 UNK        -0.1935 
     47 C          27.9635    2.9337   -9.9078 C.2       7 UNK         0.5018 
     48 O          28.5281    3.8369  -10.5261 O.2       7 UNK        -0.5186 
     49 N          28.3018    2.5545   -8.6628 N.am      8 UNK        -0.4240 
     50 CA         29.3280    3.1174   -7.7685 C.3       8 UNK         0.0235 
     51 CB         29.0375    4.5917   -7.4293 C.3       8 UNK        -0.2000 
     52 C          30.7793    2.9316   -8.2490 C.2       8 UNK         0.4941 
     53 O          31.6268    2.5256   -7.4560 O.2       8 UNK        -0.5273 
     54 N          31.0455    3.1653   -9.5412 N.am      9 UNK        -0.4262 
     55 CA         32.3295    2.9115  -10.2088 C.3       9 UNK         0.0264 
     56 CB         32.2551    3.4161  -11.6582 C.3       9 UNK        -0.1955 
     57 C          32.7502    1.4296  -10.1736 C.2       9 UNK         0.5031 
     58 O          33.9450    1.1310  -10.2016 O.2       9 UNK        -0.5390 
     59 N          31.7591    0.5351  -10.0533 N.am      10 UNK        -0.4204 
     60 CA         31.9065   -0.9058   -9.8478 C.3       10 UNK         0.0237 
     61 CB         30.5158   -1.5554   -9.9252 C.3       10 UNK        -0.1985 
     62 C          32.6313   -1.2997   -8.5434 C.2       10 UNK         0.4970 
     63 O          33.0817   -2.4419   -8.4498 O.2       10 UNK        -0.4914 
     64 N          32.7635   -0.3731   -7.5801 N.am      11 UNK        -0.4285 
     65 CA         33.6497   -0.5284   -6.4141 C.3       11 UNK         0.1007 
     66 C          35.1681   -0.5283   -6.7674 C.2       11 UNK         0.5703 
     67 N          35.5867   -0.0753   -7.9454 N.am      11 UNK        -0.7361 
     68 O          35.9842   -0.9545   -5.9537 O.2       11 UNK        -0.4986 
     69 C69        33.3651    0.5204   -5.3060 C.3       12 UNK        -0.0947 
     70 S70        31.6469    0.5353   -4.6941 S.3       12 UNK        -0.2240 
     71 C71        31.7135   -0.7087   -3.3578 C.3       12 UNK         0.0194 
     72 H72        26.5057   -0.3014    1.9500 H         1 UNK         0.0906 
     73 H73        26.4858   -2.0529    2.1667 H         1 UNK         0.0906 
     74 H74        27.8481   -1.1058    2.7673 H         1 UNK         0.0906 
     75 H75        26.9747   -3.1402    0.2719 H         1 UNK         0.3140 
     76 H76        29.2453   -2.4186   -1.3751 H         1 UNK         0.1085 
     77 H77        27.2648   -4.7381   -1.3727 H         1 UNK         0.0836 
     78 H78        28.3398   -4.5264   -2.7121 H         1 UNK         0.0836 
     79 H79        30.6497   -6.4560   -2.3467 H         1 UNK         0.0731 
     80 H80        31.8167   -5.5474   -1.4241 H         1 UNK         0.0731 
     81 H81        31.7017   -2.8763   -1.7677 H         1 UNK         0.1312 
     82 H82        30.8648   -1.7471   -5.8312 H         1 UNK         0.1406 
     83 H83        30.1923   -5.7621   -4.5553 H         1 UNK         0.1631 
     84 H84        30.3610   -5.1510   -6.9962 H         1 UNK         0.0717 
     85 H85        30.4388   -3.4763   -7.4765 H         1 UNK         0.0717 
     86 H86        28.2173   -1.9243   -5.7794 H         1 UNK         0.0934 
     87 H87        28.5106   -1.8394   -7.4988 H         1 UNK         0.0934 
     88 H88        26.0860   -2.5015   -7.8961 H         1 UNK         0.0739 
     89 H89        26.0309   -2.5552   -4.9784 H         1 UNK         0.3093 
     90 H90        22.5059   -3.2818   -4.8293 H         1 UNK         0.0818 
     91 H91        25.1408   -4.6297   -4.0090 H         1 UNK         0.0819 
     92 H92        23.5531   -4.9504   -3.3167 H         1 UNK         0.0819 
     93 H93        23.8775   -5.3523   -4.9950 H         1 UNK         0.0819 
     94 H94        24.7911   -2.2809   -3.1930 H         1 UNK         0.3041 
     95 H95        23.1225    0.7474   -2.4403 H         1 UNK         0.0784 
     96 H96        22.1594   -0.7497   -0.6839 H         1 UNK         0.0793 
     97 H97        23.6989   -1.5835   -0.5244 H         1 UNK         0.0793 
     98 H98        23.5586    0.1163   -0.0729 H         1 UNK         0.0793 
     99 H99        25.6106   -0.4425   -1.6032 H         1 UNK         0.3024 
    100 H100       27.4651    0.0243   -4.4538 H         1 UNK         0.1171 
    101 H101       28.9733    1.6394   -3.3321 H         1 UNK         0.0786 
    102 H102       27.5338    2.4583   -3.9111 H         1 UNK         0.0786 
    103 H103       27.6969    2.0866   -2.1984 H         1 UNK         0.0786 
    104 H104       28.3217   -0.2708   -1.7404 H         1 UNK         0.2977 
    105 H105       24.2312   -0.9083   -7.6690 H         1 UNK         0.3127 
    106 H106       24.4557    1.7123   -6.8218 H         1 UNK         0.0770 
    107 H107       22.7165    0.5776   -9.0770 H         1 UNK         0.0814 
    108 H108       22.4263    2.0956   -8.2378 H         1 UNK         0.0814 
    109 H109       22.3188    0.5813   -7.3576 H         1 UNK         0.0814 
    110 H110       25.9856    0.4755   -9.6341 H         1 UNK         0.2983 
    111 H111       26.2415    2.8943  -11.1727 H         1 UNK         0.0947 
    112 H112       28.0704    1.6135  -12.3097 H         1 UNK         0.0806 
    113 H113       26.6189    0.6400  -12.1569 H         1 UNK         0.0806 
    114 H114       27.9840    0.3655  -11.0741 H         1 UNK         0.0806 
    115 H115       27.7801    1.7813   -8.2566 H         1 UNK         0.3000 
    116 H116       29.2389    2.5488   -6.8406 H         1 UNK         0.0850 
    117 H117       29.7441    4.9652   -6.6870 H         1 UNK         0.0810 
    118 H118       28.0369    4.7108   -7.0135 H         1 UNK         0.0810 
    119 H119       29.1160    5.2374   -8.3044 H         1 UNK         0.0810 
    120 H120       30.2765    3.5103  -10.1135 H         1 UNK         0.3040 
    121 H121       33.0968    3.4816   -9.6811 H         1 UNK         0.0766 
    122 H122       32.0407    4.4844  -11.6955 H         1 UNK         0.0812 
    123 H123       31.4813    2.8988  -12.2270 H         1 UNK         0.0812 
    124 H124       33.2024    3.2586  -12.1760 H         1 UNK         0.0812 
    125 H125       30.8170    0.8950  -10.0398 H         1 UNK         0.3205 
    126 H126       32.5104   -1.2926  -10.6712 H         1 UNK         0.0754 
    127 H127       30.5713   -2.6324   -9.7613 H         1 UNK         0.0769 
    128 H128       30.0637   -1.4054  -10.9059 H         1 UNK         0.0769 
    129 H129       29.8403   -1.1389   -9.1793 H         1 UNK         0.0769 
    130 H130       32.3576    0.5478   -7.7006 H         1 UNK         0.2981 
    131 H131       33.4492   -1.5119   -5.9864 H         1 UNK         0.0541 
    132 H132       34.9359    0.2881   -8.6330 H         1 UNK         0.3459 
    133 H133       36.5727   -0.0884   -8.1515 H         1 UNK         0.3459 
    134 H134       33.5826    1.5217   -5.6820 H         1 UNK         0.0612 
    135 H135       34.0324    0.3741   -4.4548 H         1 UNK         0.0612 
    136 H136       32.6996   -0.6989   -2.8922 H         1 UNK         0.0624 
    137 H137       31.0107   -0.3905   -2.5864 H         1 UNK         0.0624 
@<TRIPOS>BOND
     1    1    2 1    
     2    1   72 1    
     3    1   73 1    
     4    1   74 1    
     5    2    3 2    
     6    2    4 am   BACKBONE|DICT|INTERRES
     7    4    5 1    
     8    4   75 1    
     9    5    6 1    
    10    5   35 1    
    11    5   76 1    
    12    6    7 1    
    13    6   77 1    
    14    6   78 1    
    15    7    8 1    
    16    8    9 1    
    17    8   79 1    
    18    8   80 1    
    19    9   10 ar   
    20    9   14 ar   
    21   10   11 ar   
    22   10   81 1    
    23   11   12 ar   
    24   11   71 1    
    25   12   13 ar   
    26   12   82 1    
    27   13   14 ar   
    28   13   15 1    
    29   14   83 1    
    30   15   16 1    
    31   15   84 1    
    32   15   85 1    
    33   16   17 1    
    34   17   18 1    
    35   17   86 1    
    36   17   87 1    
    37   18   19 1    
    38   18   37 1    
    39   18   88 1    
    40   19   20 am   BACKBONE|DICT|INTERRES
    41   19   89 1    
    42   20   21 2    
    43   20   22 1    
    44   22   23 1    
    45   22   24 1    
    46   22   90 1    
    47   23   91 1    
    48   23   92 1    
    49   23   93 1    
    50   24   25 am   BACKBONE|DICT|INTERRES
    51   24   94 1    
    52   25   26 2    
    53   25   27 1    
    54   27   28 1    
    55   27   29 1    
    56   27   95 1    
    57   28   96 1    
    58   28   97 1    
    59   28   98 1    
    60   29   30 am   BACKBONE|DICT|INTERRES
    61   29   99 1    
    62   30   31 2    
    63   30   32 1    
    64   32   33 1    
    65   32   34 1    
    66   32  100 1    
    67   33  101 1    
    68   33  102 1    
    69   33  103 1    
    70   34   35 am   BACKBONE|DICT|INTERRES
    71   34  104 1    
    72   35   36 2    
    73   37   38 2    
    74   37   39 am   BACKBONE|DICT|INTERRES
    75   39   40 1    
    76   39  105 1    
    77   40   41 1    
    78   40   42 1    
    79   40  106 1    
    80   41  107 1    
    81   41  108 1    
    82   41  109 1    
    83   42   43 2    
    84   42   44 am   BACKBONE|DICT|INTERRES
    85   44   45 1    
    86   44  110 1    
    87   45   46 1    
    88   45   47 1    
    89   45  111 1    
    90   46  112 1    
    91   46  113 1    
    92   46  114 1    
    93   47   48 2    
    94   47   49 am   BACKBONE|DICT|INTERRES
    95   49   50 1    
    96   49  115 1    
    97   50   51 1    
    98   50   52 1    
    99   50  116 1    
   100   51  117 1    
   101   51  118 1    
   102   51  119 1    
   103   52   53 2    
   104   52   54 am   BACKBONE|DICT|INTERRES
   105   54   55 1    
   106   54  120 1    
   107   55   56 1    
   108   55   57 1    
   109   55  121 1    
   110   56  122 1    
   111   56  123 1    
   112   56  124 1    
   113   57   58 2    
   114   57   59 am   BACKBONE|DICT|INTERRES
   115   59   60 1    
   116   59  125 1    
   117   60   61 1    
   118   60   62 1    
   119   60  126 1    
   120   61  127 1    
   121   61  128 1    
   122   61  129 1    
   123   62   63 2    
   124   62   64 am   BACKBONE|DICT|INTERRES
   125   64   65 1    
   126   64  130 1    
   127   65   66 1    
   128   65   69 1    
   129   65  131 1    
   130   66   67 am   BACKBONE|DICT|INTERRES
   131   66   68 2    
   132   67  132 1    
   133   67  133 1    
   134   69   70 1    
   135   69  134 1    
   136   69  135 1    
   137   70   71 1    
   138   71  136 1    
   139   71  137 1    
@<TRIPOS>SUBSTRUCTURE
     1 UNK         1 GROUP             0       ****    0 ROOT    
