@<TRIPOS>MOLECULE
3R137
137   139    1
SMALL
USER_CHARGES


@<TRIPOS>ATOM
      1 CA         27.6332   -1.3708    2.5699 C.3       0 UNK        -0.2020 
      2 C          28.1118   -1.8425    1.2049 C.2       0 UNK         0.4855 
      3 O          28.7956   -1.0937    0.5074 O.2       0 UNK        -0.5197 
      4 N          27.7571   -3.0750    0.8260 N.am      1 UNK        -0.4892 
      5 CA         28.0900   -3.6915   -0.4585 C.3       1 UNK         0.0835 
      6 C6         28.9348   -4.9875   -0.2905 C.3       12 UNK        -0.0855 
      7 S7         30.5024   -4.7143    0.6149 S.3       12 UNK        -0.2931 
      8 C8         31.7822   -5.0890   -0.6392 C.3       12 UNK         0.0378 
      9 C9         31.7531   -4.1949   -1.8785 C.ar      12 UNK        -0.0802 
     10 C10        32.1855   -4.7130   -3.1071 C.ar      12 UNK        -0.0944 
     11 C11        32.1282   -3.9351   -4.2684 C.ar      12 UNK        -0.0787 
     12 C12        31.6147   -2.6417   -4.1960 C.ar      12 UNK        -0.0862 
     13 C13        31.2125   -2.0999   -2.9780 C.ar      12 UNK        -0.0733 
     14 C14        31.3057   -2.8684   -1.8173 C.ar      12 UNK        -0.0832 
     15 C15        30.6210   -0.7056   -2.9462 C.3       12 UNK         0.0240 
     16 S16        28.8505   -0.8121   -3.3177 S.3       12 UNK        -0.2522 
     17 C17        28.4889    0.8718   -3.9066 C.3       12 UNK        -0.0967 
     18 CA         28.3287    0.9278   -5.4462 C.3       5 UNK         0.0660 
     19 N          27.2777    0.0236   -5.9318 N.am      5 UNK        -0.4015 
     20 C          26.9856   -0.1887   -7.2244 C.2       4 UNK         0.4946 
     21 O          27.6329    0.2967   -8.1528 O.2       4 UNK        -0.5353 
     22 CA         25.7425   -1.0325   -7.5623 C.3       4 UNK         0.0277 
     23 CB         26.1536   -2.4659   -7.9312 C.3       4 UNK        -0.1981 
     24 N          24.7317   -1.0858   -6.5040 N.am      4 UNK        -0.4209 
     25 C          24.1242   -0.0422   -5.9187 C.2       3 UNK         0.4942 
     26 O          24.3175    1.1322   -6.2386 O.2       3 UNK        -0.5208 
     27 CA         23.2044   -0.3684   -4.7256 C.3       3 UNK         0.0250 
     28 CB         21.7466   -0.4958   -5.1941 C.3       3 UNK        -0.1990 
     29 N          23.6000   -1.5864   -3.9988 N.am      3 UNK        -0.4232 
     30 C          24.7906   -1.7527   -3.4035 C.2       2 UNK         0.4993 
     31 O          25.6473   -0.8684   -3.3560 O.2       2 UNK        -0.5286 
     32 CA         25.1049   -3.1452   -2.8412 C.3       2 UNK         0.0209 
     33 CB         25.2266   -4.1822   -3.9772 C.3       2 UNK        -0.1931 
     34 N          26.3611   -3.0859   -2.0929 N.am      2 UNK        -0.4546 
     35 C          26.7523   -3.9658   -1.1647 C.2       1 UNK         0.5154 
     36 O          26.0766   -4.9396   -0.8235 O.2       1 UNK        -0.5181 
     37 C          28.0991    2.3868   -5.8951 C.2       5 UNK         0.5014 
     38 O          29.0742    3.1021   -6.1267 O.2       5 UNK        -0.5248 
     39 N          26.8273    2.7918   -6.0232 N.am      6 UNK        -0.4434 
     40 CA         26.4186    4.1007   -6.5269 C.3       6 UNK         0.0363 
     41 CB         25.3283    4.6793   -5.6096 C.3       6 UNK        -0.1936 
     42 C          25.9058    4.0000   -7.9699 C.2       6 UNK         0.5081 
     43 O          26.2665    4.8383   -8.7953 O.2       6 UNK        -0.5248 
     44 N          25.0634    2.9944   -8.2496 N.am      7 UNK        -0.4718 
     45 CA         24.3429    2.8548   -9.5180 C.3       7 UNK         0.0273 
     46 CB         23.1788    1.8666   -9.3375 C.3       7 UNK        -0.1935 
     47 C          25.2226    2.4417  -10.7090 C.2       7 UNK         0.5018 
     48 O          24.9435    2.8748  -11.8279 O.2       7 UNK        -0.5186 
     49 N          26.2455    1.6126  -10.4621 N.am      8 UNK        -0.4240 
     50 CA         27.1471    1.0806  -11.4904 C.3       8 UNK         0.0235 
     51 CB         27.0235   -0.4538  -11.5060 C.3       8 UNK        -0.2000 
     52 C          28.6115    1.4948  -11.2699 C.2       8 UNK         0.4941 
     53 O          29.4379    1.2191  -12.1405 O.2       8 UNK        -0.5273 
     54 N          28.9136    2.1153  -10.1179 N.am      9 UNK        -0.4262 
     55 CA         30.2520    2.4256   -9.6003 C.3       9 UNK         0.0264 
     56 CB         30.9492    3.4993  -10.4629 C.3       9 UNK        -0.1955 
     57 C          31.1044    1.1552   -9.3992 C.2       9 UNK         0.5031 
     58 O          32.2856    1.1382   -9.7576 O.2       9 UNK        -0.5390 
     59 N          30.4760    0.1026   -8.8511 N.am      10 UNK        -0.4204 
     60 CA         31.0807   -1.2086   -8.5977 C.3       10 UNK         0.0237 
     61 CB         30.0232   -2.1423   -7.9894 C.3       10 UNK        -0.1985 
     62 C          32.3189   -1.1245   -7.6887 C.2       10 UNK         0.4970 
     63 O          32.3084   -0.3616   -6.7205 O.2       10 UNK        -0.4914 
     64 N          33.3528   -1.9062   -8.0293 N.am      11 UNK        -0.4285 
     65 CA         34.6819   -1.9253   -7.3881 C.3       11 UNK         0.1007 
     66 C          35.4816   -0.5847   -7.4858 C.2       11 UNK         0.5703 
     67 N          35.0591    0.4007   -8.2709 N.am      11 UNK        -0.7361 
     68 O          36.5385   -0.4480   -6.8737 O.2       11 UNK        -0.4986 
     69 C69        34.6535   -2.5122   -5.9435 C.3       12 UNK        -0.0947 
     70 S70        34.3662   -4.3182   -5.8975 S.3       12 UNK        -0.2240 
     71 C71        32.5745   -4.4893   -5.6139 C.3       12 UNK         0.0194 
     72 H72        27.0164   -0.4788    2.4634 H         1 UNK         0.0906 
     73 H73        27.0446   -2.1314    3.0825 H         1 UNK         0.0906 
     74 H74        28.4867   -1.1217    3.1999 H         1 UNK         0.0906 
     75 H75        27.1665   -3.6350    1.4259 H         1 UNK         0.3140 
     76 H76        28.6544   -2.9991   -1.0845 H         1 UNK         0.1085 
     77 H77        28.3723   -5.7465    0.2566 H         1 UNK         0.0836 
     78 H78        29.1533   -5.4223   -1.2677 H         1 UNK         0.0836 
     79 H79        32.7631   -4.9967   -0.1715 H         1 UNK         0.0731 
     80 H80        31.6766   -6.1354   -0.9303 H         1 UNK         0.0731 
     81 H81        32.5569   -5.7273   -3.1646 H         1 UNK         0.1312 
     82 H82        31.5176   -2.0511   -5.0927 H         1 UNK         0.1406 
     83 H83        30.9854   -2.4410   -0.8765 H         1 UNK         0.1631 
     84 H84        31.1225   -0.0739   -3.6818 H         1 UNK         0.0717 
     85 H85        30.7656   -0.2387   -1.9706 H         1 UNK         0.0717 
     86 H86        27.5743    1.2074   -3.4132 H         1 UNK         0.0934 
     87 H87        29.2780    1.5482   -3.5714 H         1 UNK         0.0934 
     88 H88        29.2682    0.5999   -5.8975 H         1 UNK         0.0739 
     89 H89        26.7093   -0.4101   -5.2128 H         1 UNK         0.3093 
     90 H90        25.2735   -0.5791   -8.4363 H         1 UNK         0.0818 
     91 H91        25.2891   -3.0711   -8.2049 H         1 UNK         0.0819 
     92 H92        26.8259   -2.4714   -8.7889 H         1 UNK         0.0819 
     93 H93        26.6679   -2.9649   -7.1086 H         1 UNK         0.0819 
     94 H94        24.4959   -2.0058   -6.1632 H         1 UNK         0.3041 
     95 H95        23.2700    0.4701   -4.0289 H         1 UNK         0.0784 
     96 H96        21.4264    0.4053   -5.7196 H         1 UNK         0.0793 
     97 H97        21.6116   -1.3360   -5.8764 H         1 UNK         0.0793 
     98 H98        21.0692   -0.6340   -4.3512 H         1 UNK         0.0793 
     99 H99        22.9375   -2.3494   -3.9962 H         1 UNK         0.3024 
    100 H100       24.2956   -3.4273   -2.1636 H         1 UNK         0.1171 
    101 H101       24.3023   -4.2604   -4.5503 H         1 UNK         0.0786 
    102 H102       25.4398   -5.1775   -3.5868 H         1 UNK         0.0786 
    103 H103       26.0251   -3.9219   -4.6734 H         1 UNK         0.0786 
    104 H104       26.9159   -2.2573   -2.2849 H         1 UNK         0.2977 
    105 H105       26.0818    2.1264   -5.8471 H         1 UNK         0.3127 
    106 H106       27.2631    4.7934   -6.5210 H         1 UNK         0.0770 
    107 H107       24.4513    4.0322   -5.5605 H         1 UNK         0.0814 
    108 H108       24.9954    5.6549   -5.9664 H         1 UNK         0.0814 
    109 H109       25.6995    4.8157   -4.5938 H         1 UNK         0.0814 
    110 H110       24.7955    2.3523   -7.5060 H         1 UNK         0.2983 
    111 H111       23.9144    3.8297   -9.7620 H         1 UNK         0.0947 
    112 H112       22.5932    1.7816  -10.2539 H         1 UNK         0.0806 
    113 H113       22.5000    2.1936   -8.5496 H         1 UNK         0.0806 
    114 H114       23.5286    0.8670   -9.0815 H         1 UNK         0.0806 
    115 H115       26.4150    1.2998   -9.5133 H         1 UNK         0.3000 
    116 H116       26.8664    1.4515  -12.4783 H         1 UNK         0.0850 
    117 H117       27.6248   -0.8862  -12.3068 H         1 UNK         0.0810 
    118 H118       25.9928   -0.7685  -11.6698 H         1 UNK         0.0810 
    119 H119       27.3661   -0.8952  -10.5702 H         1 UNK         0.0810 
    120 H120       28.1571    2.2672   -9.4668 H         1 UNK         0.3040 
    121 H121       30.1054    2.8504   -8.6067 H         1 UNK         0.0766 
    122 H122       31.1854    3.1294  -11.4610 H         1 UNK         0.0812 
    123 H123       30.3257    4.3866  -10.5717 H         1 UNK         0.0812 
    124 H124       31.8871    3.8164  -10.0054 H         1 UNK         0.0812 
    125 H125       29.4963    0.2075   -8.5985 H         1 UNK         0.3205 
    126 H126       31.3818   -1.6118   -9.5667 H         1 UNK         0.0754 
    127 H127       30.4135   -3.1521   -7.8646 H         1 UNK         0.0769 
    128 H128       29.1510   -2.2178   -8.6371 H         1 UNK         0.0769 
    129 H129       29.6895   -1.7941   -7.0107 H         1 UNK         0.0769 
    130 H130       33.2678   -2.4901   -8.8485 H         1 UNK         0.2981 
    131 H131       35.2730   -2.6104   -7.9967 H         1 UNK         0.0541 
    132 H132       34.1809    0.3380   -8.7683 H         1 UNK         0.3459 
    133 H133       35.6045    1.2457   -8.3283 H         1 UNK         0.3459 
    134 H134       33.9382   -1.9834   -5.3174 H         1 UNK         0.0612 
    135 H135       35.6173   -2.3683   -5.4532 H         1 UNK         0.0612 
    136 H136       32.3126   -5.5464   -5.6755 H         1 UNK         0.0624 
    137 H137       32.0390   -3.9996   -6.4261 H         1 UNK         0.0624 
@<TRIPOS>BOND
     1    1    2 1    
     2    1   72 1    
     3    1   73 1    
     4    1   74 1    
     5    2    3 2    
     6    2    4 am   BACKBONE|DICT|INTERRES
     7    4    5 1    
     8    4   75 1    
     9    5    6 1    
    10    5   35 1    
    11    5   76 1    
    12    6    7 1    
    13    6   77 1    
    14    6   78 1    
    15    7    8 1    
    16    8    9 1    
    17    8   79 1    
    18    8   80 1    
    19    9   10 ar   
    20    9   14 ar   
    21   10   11 ar   
    22   10   81 1    
    23   11   12 ar   
    24   11   71 1    
    25   12   13 ar   
    26   12   82 1    
    27   13   14 ar   
    28   13   15 1    
    29   14   83 1    
    30   15   16 1    
    31   15   84 1    
    32   15   85 1    
    33   16   17 1    
    34   17   18 1    
    35   17   86 1    
    36   17   87 1    
    37   18   19 1    
    38   18   37 1    
    39   18   88 1    
    40   19   20 am   BACKBONE|DICT|INTERRES
    41   19   89 1    
    42   20   21 2    
    43   20   22 1    
    44   22   23 1    
    45   22   24 1    
    46   22   90 1    
    47   23   91 1    
    48   23   92 1    
    49   23   93 1    
    50   24   25 am   BACKBONE|DICT|INTERRES
    51   24   94 1    
    52   25   26 2    
    53   25   27 1    
    54   27   28 1    
    55   27   29 1    
    56   27   95 1    
    57   28   96 1    
    58   28   97 1    
    59   28   98 1    
    60   29   30 am   BACKBONE|DICT|INTERRES
    61   29   99 1    
    62   30   31 2    
    63   30   32 1    
    64   32   33 1    
    65   32   34 1    
    66   32  100 1    
    67   33  101 1    
    68   33  102 1    
    69   33  103 1    
    70   34   35 am   BACKBONE|DICT|INTERRES
    71   34  104 1    
    72   35   36 2    
    73   37   38 2    
    74   37   39 am   BACKBONE|DICT|INTERRES
    75   39   40 1    
    76   39  105 1    
    77   40   41 1    
    78   40   42 1    
    79   40  106 1    
    80   41  107 1    
    81   41  108 1    
    82   41  109 1    
    83   42   43 2    
    84   42   44 am   BACKBONE|DICT|INTERRES
    85   44   45 1    
    86   44  110 1    
    87   45   46 1    
    88   45   47 1    
    89   45  111 1    
    90   46  112 1    
    91   46  113 1    
    92   46  114 1    
    93   47   48 2    
    94   47   49 am   BACKBONE|DICT|INTERRES
    95   49   50 1    
    96   49  115 1    
    97   50   51 1    
    98   50   52 1    
    99   50  116 1    
   100   51  117 1    
   101   51  118 1    
   102   51  119 1    
   103   52   53 2    
   104   52   54 am   BACKBONE|DICT|INTERRES
   105   54   55 1    
   106   54  120 1    
   107   55   56 1    
   108   55   57 1    
   109   55  121 1    
   110   56  122 1    
   111   56  123 1    
   112   56  124 1    
   113   57   58 2    
   114   57   59 am   BACKBONE|DICT|INTERRES
   115   59   60 1    
   116   59  125 1    
   117   60   61 1    
   118   60   62 1    
   119   60  126 1    
   120   61  127 1    
   121   61  128 1    
   122   61  129 1    
   123   62   63 2    
   124   62   64 am   BACKBONE|DICT|INTERRES
   125   64   65 1    
   126   64  130 1    
   127   65   66 1    
   128   65   69 1    
   129   65  131 1    
   130   66   67 am   BACKBONE|DICT|INTERRES
   131   66   68 2    
   132   67  132 1    
   133   67  133 1    
   134   69   70 1    
   135   69  134 1    
   136   69  135 1    
   137   70   71 1    
   138   71  136 1    
   139   71  137 1    
@<TRIPOS>SUBSTRUCTURE
     1 UNK         1 GROUP             0       ****    0 ROOT    
