@<TRIPOS>MOLECULE
3R137
137   139    1
SMALL
USER_CHARGES


@<TRIPOS>ATOM
      1 CA         28.0334   -0.3296    2.1010 C.3       0 UNK        -0.2020 
      2 C          27.8787   -1.5362    1.1873 C.2       0 UNK         0.4855 
      3 O          27.3706   -2.5685    1.6246 O.2       0 UNK        -0.5197 
      4 N          28.3021   -1.4030   -0.0787 N.am      1 UNK        -0.4892 
      5 CA         28.3001   -2.4438   -1.1252 C.3       1 UNK         0.0835 
      6 C6         29.1865   -3.6763   -0.7805 C.3       12 UNK        -0.0855 
      7 S7         30.9074   -3.2134   -0.3703 S.3       12 UNK        -0.2931 
      8 C8         31.8540   -3.9446   -1.7447 C.3       12 UNK         0.0378 
      9 C9         31.5429   -3.2847   -3.0807 C.ar      12 UNK        -0.0802 
     10 C10        31.9878   -1.9854   -3.3449 C.ar      12 UNK        -0.0944 
     11 C11        31.7266   -1.3799   -4.5792 C.ar      12 UNK        -0.0787 
     12 C12        30.9957   -2.0803   -5.5429 C.ar      12 UNK        -0.0862 
     13 C13        30.5334   -3.3742   -5.2855 C.ar      12 UNK        -0.0733 
     14 C14        30.8212   -3.9769   -4.0580 C.ar      12 UNK        -0.0832 
     15 C15        29.6798   -4.0987   -6.3179 C.3       12 UNK         0.0240 
     16 S16        27.9498   -4.3035   -5.7741 S.3       12 UNK        -0.2522 
     17 C17        27.4952   -2.6052   -5.2913 C.3       12 UNK        -0.0967 
     18 CA         26.9795   -1.7673   -6.4862 C.3       5 UNK         0.0660 
     19 N          25.5193   -1.7981   -6.5634 N.am      5 UNK        -0.4015 
     20 C          24.7825   -1.3314   -7.5780 C.2       4 UNK         0.4946 
     21 O          25.2523   -0.8574   -8.6121 O.2       4 UNK        -0.5353 
     22 CA         23.2585   -1.3615   -7.3743 C.3       4 UNK         0.0277 
     23 CB         22.6922   -2.7516   -7.7051 C.3       4 UNK        -0.1981 
     24 N          22.8644   -0.9748   -6.0141 N.am      4 UNK        -0.4209 
     25 C          23.0441    0.2534   -5.5074 C.2       3 UNK         0.4942 
     26 O          23.5418    1.1853   -6.1367 O.2       3 UNK        -0.5208 
     27 CA         22.6305    0.4804   -4.0452 C.3       3 UNK         0.0250 
     28 CB         21.1148    0.7174   -3.9447 C.3       3 UNK        -0.1990 
     29 N          23.0263   -0.5833   -3.1143 N.am      3 UNK        -0.4232 
     30 C          24.2784   -1.0176   -2.9100 C.2       2 UNK         0.4993 
     31 O          25.2446   -0.6790   -3.5978 O.2       2 UNK        -0.5286 
     32 CA         24.4730   -1.9681   -1.7189 C.3       2 UNK         0.0209 
     33 CB         23.8593   -3.3603   -1.9812 C.3       2 UNK        -0.1931 
     34 N          25.8816   -1.9965   -1.2889 N.am      2 UNK        -0.4546 
     35 C          26.8772   -2.8463   -1.5918 C.2       1 UNK         0.5154 
     36 O          26.7278   -3.8946   -2.2197 O.2       1 UNK        -0.5181 
     37 C          27.5089   -0.3233   -6.4192 C.2       5 UNK         0.5014 
     38 O          28.4548    0.0037   -7.1372 O.2       5 UNK        -0.5248 
     39 N          26.8827    0.5136   -5.5802 N.am      6 UNK        -0.4434 
     40 CA         27.1913    1.9376   -5.4395 C.3       6 UNK         0.0363 
     41 CB         26.4081    2.5191   -4.2523 C.3       6 UNK        -0.1936 
     42 C          26.9168    2.7395   -6.7235 C.2       6 UNK         0.5081 
     43 O          27.7201    3.6037   -7.0736 O.2       6 UNK        -0.5248 
     44 N          25.8092    2.4266   -7.4121 N.am      7 UNK        -0.4718 
     45 CA         25.4436    3.0045   -8.7078 C.3       7 UNK         0.0273 
     46 CB         23.9981    2.6198   -9.0608 C.3       7 UNK        -0.1935 
     47 C          26.4064    2.5949   -9.8343 C.2       7 UNK         0.5018 
     48 O          26.7653    3.4418  -10.6536 O.2       7 UNK        -0.5186 
     49 N          26.8162    1.3174   -9.8502 N.am      8 UNK        -0.4240 
     50 CA         27.8179    0.7843  -10.7775 C.3       8 UNK         0.0235 
     51 CB         27.8256   -0.7517  -10.7042 C.3       8 UNK        -0.2000 
     52 C          29.2282    1.3403  -10.5169 C.2       8 UNK         0.4941 
     53 O          29.9618    1.5858  -11.4750 O.2       8 UNK        -0.5273 
     54 N          29.5754    1.5122   -9.2312 N.am      9 UNK        -0.4262 
     55 CA         30.8620    1.9813   -8.7020 C.3       9 UNK         0.0264 
     56 CB         31.1131    3.4546   -9.0849 C.3       9 UNK        -0.1955 
     57 C          32.0327    1.0510   -9.0755 C.2       9 UNK         0.5031 
     58 O          33.1477    1.5214   -9.3101 O.2       9 UNK        -0.5390 
     59 N          31.7535   -0.2612   -9.1171 N.am      10 UNK        -0.4204 
     60 CA         32.6533   -1.3207   -9.5905 C.3       10 UNK         0.0237 
     61 CB         31.9124   -2.6670   -9.5444 C.3       10 UNK        -0.1985 
     62 C          33.9940   -1.4238   -8.8409 C.2       10 UNK         0.4970 
     63 O          34.9788   -1.8668   -9.4330 O.2       10 UNK        -0.4914 
     64 N          34.0091   -1.0109   -7.5685 N.am      11 UNK        -0.4285 
     65 CA         35.2100   -0.9184   -6.7307 C.3       11 UNK         0.1007 
     66 C          36.1316    0.3008   -7.0364 C.2       11 UNK         0.5703 
     67 N          35.7410    1.2444   -7.8870 N.am      11 UNK        -0.7361 
     68 O          37.2352    0.3812   -6.5019 O.2       11 UNK        -0.4986 
     69 C69        34.8553   -1.0604   -5.2274 C.3       12 UNK        -0.0947 
     70 S70        33.9562    0.3526   -4.4867 S.3       12 UNK        -0.2240 
     71 C71        32.1992    0.0389   -4.8772 C.3       12 UNK         0.0194 
     72 H72        28.4840    0.5190    1.5866 H         1 UNK         0.0906 
     73 H73        27.0606   -0.0184    2.4810 H         1 UNK         0.0906 
     74 H74        28.6657   -0.5836    2.9515 H         1 UNK         0.0906 
     75 H75        28.7130   -0.5234   -0.3614 H         1 UNK         0.3140 
     76 H76        28.7488   -1.9745   -2.0028 H         1 UNK         0.1085 
     77 H77        28.7684   -4.2249    0.0647 H         1 UNK         0.0836 
     78 H78        29.2008   -4.3834   -1.6115 H         1 UNK         0.0836 
     79 H79        31.6619   -5.0181   -1.7837 H         1 UNK         0.0731 
     80 H80        32.9188   -3.8351   -1.5341 H         1 UNK         0.0731 
     81 H81        32.5427   -1.4470   -2.5886 H         1 UNK         0.1312 
     82 H82        30.7593   -1.6078   -6.4861 H         1 UNK         0.1406 
     83 H83        30.4599   -4.9769   -3.8588 H         1 UNK         0.1631 
     84 H84        30.1093   -5.0811   -6.5188 H         1 UNK         0.0717 
     85 H85        29.6815   -3.5628   -7.2679 H         1 UNK         0.0717 
     86 H86        26.7250   -2.6822   -4.5250 H         1 UNK         0.0934 
     87 H87        28.3313   -2.1342   -4.7745 H         1 UNK         0.0934 
     88 H88        27.3642   -2.1890   -7.4173 H         1 UNK         0.0739 
     89 H89        25.0390   -2.1236   -5.7380 H         1 UNK         0.3093 
     90 H90        22.8202   -0.6412   -8.0687 H         1 UNK         0.0818 
     91 H91        21.6035   -2.7600   -7.6477 H         1 UNK         0.0819 
     92 H92        22.9631   -3.0503   -8.7189 H         1 UNK         0.0819 
     93 H93        23.0706   -3.5181   -7.0277 H         1 UNK         0.0819 
     94 H94        22.4414   -1.6826   -5.4313 H         1 UNK         0.3041 
     95 H95        23.1321    1.3915   -3.7127 H         1 UNK         0.0784 
     96 H96        20.7988    1.5154   -4.6184 H         1 UNK         0.0793 
     97 H97        20.5458   -0.1752   -4.2076 H         1 UNK         0.0793 
     98 H98        20.8252    1.0159   -2.9369 H         1 UNK         0.0793 
     99 H99        22.2959   -0.9324   -2.5101 H         1 UNK         0.3024 
    100 H100       23.9336   -1.5293   -0.8775 H         1 UNK         0.1171 
    101 H101       24.0603   -4.0462   -1.1581 H         1 UNK         0.0786 
    102 H102       22.7760   -3.2979   -2.0886 H         1 UNK         0.0786 
    103 H103       24.2441   -3.8092   -2.8977 H         1 UNK         0.0786 
    104 H104       26.1677   -1.1753   -0.7744 H         1 UNK         0.2977 
    105 H105       26.1548    0.1398   -4.9725 H         1 UNK         0.3127 
    106 H106       28.2576    2.0225   -5.2188 H         1 UNK         0.0770 
    107 H107       25.3312    2.4556   -4.4102 H         1 UNK         0.0814 
    108 H108       26.6547    3.5706   -4.1001 H         1 UNK         0.0814 
    109 H109       26.6414    1.9923   -3.3268 H         1 UNK         0.0814 
    110 H110       25.1540    1.7613   -7.0086 H         1 UNK         0.2983 
    111 H111       25.4922    4.0916   -8.6131 H         1 UNK         0.0947 
    112 H112       23.7009    3.0507  -10.0177 H         1 UNK         0.0806 
    113 H113       23.2972    2.9840   -8.3094 H         1 UNK         0.0806 
    114 H114       23.8745    1.5389   -9.1356 H         1 UNK         0.0806 
    115 H115       26.4083    0.6635   -9.1878 H         1 UNK         0.3000 
    116 H116       27.5287    1.0760  -11.7895 H         1 UNK         0.0850 
    117 H117       28.5600   -1.1734  -11.3919 H         1 UNK         0.0810 
    118 H118       26.8535   -1.1644  -10.9749 H         1 UNK         0.0810 
    119 H119       28.0703   -1.1086   -9.7033 H         1 UNK         0.0810 
    120 H120       28.9166    1.1969   -8.5218 H         1 UNK         0.3040 
    121 H121       30.7728    1.9361   -7.6155 H         1 UNK         0.0766 
    122 H122       31.2712    3.5735  -10.1572 H         1 UNK         0.0812 
    123 H123       31.9980    3.8446   -8.5806 H         1 UNK         0.0812 
    124 H124       30.2715    4.0851   -8.7969 H         1 UNK         0.0812 
    125 H125       30.8037   -0.5350   -8.9106 H         1 UNK         0.3205 
    126 H126       32.8869   -1.0953  -10.6332 H         1 UNK         0.0754 
    127 H127       32.5275   -3.4638   -9.9654 H         1 UNK         0.0769 
    128 H128       30.9879   -2.6364  -10.1216 H         1 UNK         0.0769 
    129 H129       31.6659   -2.9558   -8.5227 H         1 UNK         0.0769 
    130 H130       33.1617   -0.6467   -7.1655 H         1 UNK         0.2981 
    131 H131       35.8222   -1.7896   -6.9720 H         1 UNK         0.0541 
    132 H132       34.8362    1.2038   -8.3456 H         1 UNK         0.3459 
    133 H133       36.3575    2.0187   -8.0734 H         1 UNK         0.3459 
    134 H134       35.7736   -1.1886   -4.6519 H         1 UNK         0.0612 
    135 H135       34.2959   -1.9819   -5.0656 H         1 UNK         0.0612 
    136 H136       31.5896    0.7337   -4.2982 H         1 UNK         0.0624 
    137 H137       32.0284    0.2923   -5.9236 H         1 UNK         0.0624 
@<TRIPOS>BOND
     1    1    2 1    
     2    1   72 1    
     3    1   73 1    
     4    1   74 1    
     5    2    3 2    
     6    2    4 am   BACKBONE|DICT|INTERRES
     7    4    5 1    
     8    4   75 1    
     9    5    6 1    
    10    5   35 1    
    11    5   76 1    
    12    6    7 1    
    13    6   77 1    
    14    6   78 1    
    15    7    8 1    
    16    8    9 1    
    17    8   79 1    
    18    8   80 1    
    19    9   10 ar   
    20    9   14 ar   
    21   10   11 ar   
    22   10   81 1    
    23   11   12 ar   
    24   11   71 1    
    25   12   13 ar   
    26   12   82 1    
    27   13   14 ar   
    28   13   15 1    
    29   14   83 1    
    30   15   16 1    
    31   15   84 1    
    32   15   85 1    
    33   16   17 1    
    34   17   18 1    
    35   17   86 1    
    36   17   87 1    
    37   18   19 1    
    38   18   37 1    
    39   18   88 1    
    40   19   20 am   BACKBONE|DICT|INTERRES
    41   19   89 1    
    42   20   21 2    
    43   20   22 1    
    44   22   23 1    
    45   22   24 1    
    46   22   90 1    
    47   23   91 1    
    48   23   92 1    
    49   23   93 1    
    50   24   25 am   BACKBONE|DICT|INTERRES
    51   24   94 1    
    52   25   26 2    
    53   25   27 1    
    54   27   28 1    
    55   27   29 1    
    56   27   95 1    
    57   28   96 1    
    58   28   97 1    
    59   28   98 1    
    60   29   30 am   BACKBONE|DICT|INTERRES
    61   29   99 1    
    62   30   31 2    
    63   30   32 1    
    64   32   33 1    
    65   32   34 1    
    66   32  100 1    
    67   33  101 1    
    68   33  102 1    
    69   33  103 1    
    70   34   35 am   BACKBONE|DICT|INTERRES
    71   34  104 1    
    72   35   36 2    
    73   37   38 2    
    74   37   39 am   BACKBONE|DICT|INTERRES
    75   39   40 1    
    76   39  105 1    
    77   40   41 1    
    78   40   42 1    
    79   40  106 1    
    80   41  107 1    
    81   41  108 1    
    82   41  109 1    
    83   42   43 2    
    84   42   44 am   BACKBONE|DICT|INTERRES
    85   44   45 1    
    86   44  110 1    
    87   45   46 1    
    88   45   47 1    
    89   45  111 1    
    90   46  112 1    
    91   46  113 1    
    92   46  114 1    
    93   47   48 2    
    94   47   49 am   BACKBONE|DICT|INTERRES
    95   49   50 1    
    96   49  115 1    
    97   50   51 1    
    98   50   52 1    
    99   50  116 1    
   100   51  117 1    
   101   51  118 1    
   102   51  119 1    
   103   52   53 2    
   104   52   54 am   BACKBONE|DICT|INTERRES
   105   54   55 1    
   106   54  120 1    
   107   55   56 1    
   108   55   57 1    
   109   55  121 1    
   110   56  122 1    
   111   56  123 1    
   112   56  124 1    
   113   57   58 2    
   114   57   59 am   BACKBONE|DICT|INTERRES
   115   59   60 1    
   116   59  125 1    
   117   60   61 1    
   118   60   62 1    
   119   60  126 1    
   120   61  127 1    
   121   61  128 1    
   122   61  129 1    
   123   62   63 2    
   124   62   64 am   BACKBONE|DICT|INTERRES
   125   64   65 1    
   126   64  130 1    
   127   65   66 1    
   128   65   69 1    
   129   65  131 1    
   130   66   67 am   BACKBONE|DICT|INTERRES
   131   66   68 2    
   132   67  132 1    
   133   67  133 1    
   134   69   70 1    
   135   69  134 1    
   136   69  135 1    
   137   70   71 1    
   138   71  136 1    
   139   71  137 1    
@<TRIPOS>SUBSTRUCTURE
     1 UNK         1 GROUP             0       ****    0 ROOT    
