@<TRIPOS>MOLECULE
3R137
137   139    1
SMALL
USER_CHARGES


@<TRIPOS>ATOM
      1 CA         24.3458   -6.3176   -3.9971 C.3       0 UNK        -0.2020 
      2 C          24.8887   -5.4746   -2.8531 C.2       0 UNK         0.4855 
      3 O          24.1331   -4.7250   -2.2328 O.2       0 UNK        -0.5197 
      4 N          26.1935   -5.5924   -2.5693 N.am      1 UNK        -0.4892 
      5 CA         26.9121   -4.8372   -1.5369 C.3       1 UNK         0.0835 
      6 C6         28.3707   -5.3413   -1.3985 C.3       12 UNK        -0.0855 
      7 S7         29.2032   -4.7066    0.0995 S.3       12 UNK        -0.2931 
      8 C8         30.8693   -4.2891   -0.5243 C.3       12 UNK         0.0378 
      9 C9         30.8454   -3.2558   -1.6449 C.ar      12 UNK        -0.0802 
     10 C10        31.4040   -3.5560   -2.8916 C.ar      12 UNK        -0.0944 
     11 C11        31.3536   -2.6263   -3.9342 C.ar      12 UNK        -0.0787 
     12 C12        30.7372   -1.3904   -3.7244 C.ar      12 UNK        -0.0862 
     13 C13        30.1791   -1.0728   -2.4800 C.ar      12 UNK        -0.0733 
     14 C14        30.2511   -2.0068   -1.4424 C.ar      12 UNK        -0.0832 
     15 C15        29.4087    0.2230   -2.2550 C.3       12 UNK         0.0240 
     16 S16        30.0440    1.6527   -3.1873 S.3       12 UNK        -0.2522 
     17 C17        28.4824    2.4547   -3.6798 C.3       12 UNK        -0.0967 
     18 CA         28.0368    2.0136   -5.0951 C.3       5 UNK         0.0660 
     19 N          27.6392    0.6026   -5.1704 N.am      5 UNK        -0.4015 
     20 C          27.6548   -0.1145   -6.3039 C.2       4 UNK         0.4946 
     21 O          28.0908    0.3175   -7.3710 O.2       4 UNK        -0.5353 
     22 CA         27.0496   -1.5298   -6.2693 C.3       4 UNK         0.0277 
     23 CB         28.1341   -2.5943   -6.0520 C.3       4 UNK        -0.1981 
     24 N          25.9998   -1.6805   -5.2589 N.am      4 UNK        -0.4209 
     25 C          24.7930   -1.1005   -5.3521 C.2       3 UNK         0.4942 
     26 O          24.4479   -0.4197   -6.3159 O.2       3 UNK        -0.5208 
     27 CA         23.8172   -1.2495   -4.1706 C.3       3 UNK         0.0250 
     28 CB         22.8075   -2.3728   -4.4481 C.3       3 UNK        -0.1990 
     29 N          24.4703   -1.4817   -2.8810 N.am      3 UNK        -0.4232 
     30 C          25.3339   -0.6370   -2.2972 C.2       2 UNK         0.4993 
     31 O          25.6601    0.4492   -2.7818 O.2       2 UNK        -0.5286 
     32 CA         25.9965   -1.1122   -0.9898 C.3       2 UNK         0.0209 
     33 CB         25.1655   -0.6578    0.2201 C.3       2 UNK        -0.1931 
     34 N          26.2239   -2.5619   -0.9056 N.am      2 UNK        -0.4546 
     35 C          26.8351   -3.3233   -1.8273 C.2       1 UNK         0.5154 
     36 O          27.2722   -2.8905   -2.8950 O.2       1 UNK        -0.5181 
     37 C          26.9145    2.9201   -5.6308 C.2       5 UNK         0.5014 
     38 O          27.2178    3.9008   -6.3097 O.2       5 UNK        -0.5248 
     39 N          25.6466    2.5645   -5.3662 N.am      6 UNK        -0.4434 
     40 CA         24.4688    3.2476   -5.9151 C.3       6 UNK         0.0363 
     41 CB         23.1953    2.7326   -5.2258 C.3       6 UNK        -0.1936 
     42 C          24.3640    3.1033   -7.4451 C.2       6 UNK         0.5081 
     43 O          24.0460    4.0772   -8.1274 O.2       6 UNK        -0.5248 
     44 N          24.6752    1.9044   -7.9572 N.am      7 UNK        -0.4718 
     45 CA         24.7799    1.5974   -9.3875 C.3       7 UNK         0.0273 
     46 CB         24.7351    0.0714   -9.5702 C.3       7 UNK        -0.1935 
     47 C          26.0450    2.1718  -10.0553 C.2       7 UNK         0.5018 
     48 O          26.1033    2.1999  -11.2851 O.2       7 UNK        -0.5186 
     49 N          27.0246    2.6001   -9.2442 N.am      8 UNK        -0.4240 
     50 CA         28.3416    3.1262   -9.6171 C.3       8 UNK         0.0235 
     51 CB         28.2086    4.4792  -10.3482 C.3       8 UNK        -0.2000 
     52 C          29.1876    2.0957  -10.3890 C.2       8 UNK         0.4941 
     53 O          29.7196    2.4049  -11.4571 O.2       8 UNK        -0.5273 
     54 N          29.2936    0.8817   -9.8285 N.am      9 UNK        -0.4262 
     55 CA         30.0551   -0.2399  -10.3888 C.3       9 UNK         0.0264 
     56 CB         29.7285   -1.5185   -9.6010 C.3       9 UNK        -0.1955 
     57 C          31.5767   -0.0061  -10.4104 C.2       9 UNK         0.5031 
     58 O          32.2464   -0.5394  -11.2959 O.2       9 UNK        -0.5390 
     59 N          32.0800    0.7822   -9.4454 N.am      10 UNK        -0.4204 
     60 CA         33.4771    1.2030   -9.2715 C.3       10 UNK         0.0237 
     61 CB         33.8808    2.1933  -10.3853 C.3       10 UNK        -0.1985 
     62 C          34.4492    0.0131   -9.1424 C.2       10 UNK         0.4970 
     63 O          35.4111   -0.0893   -9.9067 O.2       10 UNK        -0.4914 
     64 N          34.1646   -0.8733   -8.1793 N.am      11 UNK        -0.4285 
     65 CA         34.9525   -2.0843   -7.8930 C.3       11 UNK         0.1007 
     66 C          36.3840   -1.8452   -7.3228 C.2       11 UNK         0.5703 
     67 N          36.7306   -0.6462   -6.8687 N.am      11 UNK        -0.7361 
     68 O          37.1982   -2.7656   -7.3051 O.2       11 UNK        -0.4986 
     69 C69        34.1473   -3.1018   -7.0409 C.3       12 UNK        -0.0947 
     70 S70        33.6887   -2.4792   -5.3853 S.3       12 UNK        -0.2240 
     71 C71        31.9412   -2.9653   -5.2949 C.3       12 UNK         0.0194 
     72 H72        24.0391   -5.6786   -4.8243 H         1 UNK         0.0906 
     73 H73        25.0870   -7.0238   -4.3707 H         1 UNK         0.0906 
     74 H74        23.4770   -6.8853   -3.6649 H         1 UNK         0.0906 
     75 H75        26.7640   -6.2039   -3.1358 H         1 UNK         0.3140 
     76 H76        26.3990   -5.0353   -0.5932 H         1 UNK         0.1085 
     77 H77        28.9453   -5.0960   -2.2933 H         1 UNK         0.0836 
     78 H78        28.3808   -6.4303   -1.3297 H         1 UNK         0.0836 
     79 H79        31.3592   -5.2072   -0.8527 H         1 UNK         0.0731 
     80 H80        31.4678   -3.9008    0.3008 H         1 UNK         0.0731 
     81 H81        31.8700   -4.5178   -3.0573 H         1 UNK         0.1312 
     82 H82        30.6728   -0.6878   -4.5433 H         1 UNK         0.1406 
     83 H83        29.8042   -1.7826   -0.4832 H         1 UNK         0.1631 
     84 H84        29.3871    0.4840   -1.1958 H         1 UNK         0.0717 
     85 H85        28.3810    0.0287   -2.5525 H         1 UNK         0.0717 
     86 H86        27.7040    2.2674   -2.9375 H         1 UNK         0.0934 
     87 H87        28.6614    3.5318   -3.6573 H         1 UNK         0.0934 
     88 H88        28.8915    2.1578   -5.7607 H         1 UNK         0.0739 
     89 H89        27.2241    0.2014   -4.3396 H         1 UNK         0.3093 
     90 H90        26.6012   -1.7111   -7.2482 H         1 UNK         0.0818 
     91 H91        27.7172   -3.6001   -6.1030 H         1 UNK         0.0819 
     92 H92        28.9108   -2.5276   -6.8128 H         1 UNK         0.0819 
     93 H93        28.6164   -2.4859   -5.0822 H         1 UNK         0.0819 
     94 H94        26.2500   -2.1942   -4.4172 H         1 UNK         0.3041 
     95 H95        23.2649   -0.3118   -4.0862 H         1 UNK         0.0784 
     96 H96        22.2596   -2.1844   -5.3726 H         1 UNK         0.0793 
     97 H97        23.3000   -3.3391   -4.5535 H         1 UNK         0.0793 
     98 H98        22.0725   -2.4558   -3.6473 H         1 UNK         0.0793 
     99 H99        24.2940   -2.3741   -2.4352 H         1 UNK         0.3024 
    100 H100       26.9712   -0.6306   -0.9218 H         1 UNK         0.1171 
    101 H101       25.6726   -0.8829    1.1586 H         1 UNK         0.0786 
    102 H102       24.9982    0.4203    0.1965 H         1 UNK         0.0786 
    103 H103       24.1868   -1.1391    0.2421 H         1 UNK         0.0786 
    104 H104       25.8722   -3.0150   -0.0743 H         1 UNK         0.2977 
    105 H105       25.4779    1.7596   -4.7770 H         1 UNK         0.3127 
    106 H106       24.5685    4.3114   -5.6887 H         1 UNK         0.0770 
    107 H107       23.0040    1.6846   -5.4553 H         1 UNK         0.0814 
    108 H108       22.3229    3.2983   -5.5554 H         1 UNK         0.0814 
    109 H109       23.2577    2.8353   -4.1423 H         1 UNK         0.0814 
    110 H110       24.8203    1.1263   -7.3169 H         1 UNK         0.2983 
    111 H111       23.9166    2.0319   -9.8962 H         1 UNK         0.0947 
    112 H112       25.5875   -0.4137   -9.0934 H         1 UNK         0.0806 
    113 H113       24.7550   -0.1984  -10.6269 H         1 UNK         0.0806 
    114 H114       23.8261   -0.3539   -9.1441 H         1 UNK         0.0806 
    115 H115       26.8617    2.5166   -8.2501 H         1 UNK         0.3000 
    116 H116       28.8692    3.3124   -8.6803 H         1 UNK         0.0850 
    117 H117       27.6325    5.1918   -9.7577 H         1 UNK         0.0810 
    118 H118       27.7194    4.3725  -11.3168 H         1 UNK         0.0810 
    119 H119       29.1885    4.9235  -10.5268 H         1 UNK         0.0810 
    120 H120       28.8100    0.7064   -8.9459 H         1 UNK         0.3040 
    121 H121       29.7270   -0.3793  -11.4210 H         1 UNK         0.0766 
    122 H122       30.2239   -2.3856  -10.0400 H         1 UNK         0.0812 
    123 H123       28.6575   -1.7225   -9.5970 H         1 UNK         0.0812 
    124 H124       30.0605   -1.4428   -8.5654 H         1 UNK         0.0812 
    125 H125       31.4252    1.1444   -8.7667 H         1 UNK         0.3205 
    126 H126       33.5245    1.7416   -8.3238 H         1 UNK         0.0754 
    127 H127       34.8848    2.5847  -10.2164 H         1 UNK         0.0769 
    128 H128       33.2025    3.0460  -10.4217 H         1 UNK         0.0769 
    129 H129       33.8760    1.7217  -11.3687 H         1 UNK         0.0769 
    130 H130       33.3688   -0.7139   -7.5804 H         1 UNK         0.2981 
    131 H131       35.1188   -2.5650   -8.8590 H         1 UNK         0.0541 
    132 H132       37.6609   -0.5049   -6.5083 H         1 UNK         0.3459 
    133 H133       36.0690    0.1126   -6.8727 H         1 UNK         0.3459 
    134 H134       33.2429   -3.3842   -7.5821 H         1 UNK         0.0612 
    135 H135       34.7111   -4.0277   -6.9141 H         1 UNK         0.0612 
    136 H136       31.8512   -4.0360   -5.4851 H         1 UNK         0.0624 
    137 H137       31.3835   -2.4602   -6.0850 H         1 UNK         0.0624 
@<TRIPOS>BOND
     1    1    2 1    
     2    1   72 1    
     3    1   73 1    
     4    1   74 1    
     5    2    3 2    
     6    2    4 am   BACKBONE|DICT|INTERRES
     7    4    5 1    
     8    4   75 1    
     9    5    6 1    
    10    5   35 1    
    11    5   76 1    
    12    6    7 1    
    13    6   77 1    
    14    6   78 1    
    15    7    8 1    
    16    8    9 1    
    17    8   79 1    
    18    8   80 1    
    19    9   10 ar   
    20    9   14 ar   
    21   10   11 ar   
    22   10   81 1    
    23   11   12 ar   
    24   11   71 1    
    25   12   13 ar   
    26   12   82 1    
    27   13   14 ar   
    28   13   15 1    
    29   14   83 1    
    30   15   16 1    
    31   15   84 1    
    32   15   85 1    
    33   16   17 1    
    34   17   18 1    
    35   17   86 1    
    36   17   87 1    
    37   18   19 1    
    38   18   37 1    
    39   18   88 1    
    40   19   20 am   BACKBONE|DICT|INTERRES
    41   19   89 1    
    42   20   21 2    
    43   20   22 1    
    44   22   23 1    
    45   22   24 1    
    46   22   90 1    
    47   23   91 1    
    48   23   92 1    
    49   23   93 1    
    50   24   25 am   BACKBONE|DICT|INTERRES
    51   24   94 1    
    52   25   26 2    
    53   25   27 1    
    54   27   28 1    
    55   27   29 1    
    56   27   95 1    
    57   28   96 1    
    58   28   97 1    
    59   28   98 1    
    60   29   30 am   BACKBONE|DICT|INTERRES
    61   29   99 1    
    62   30   31 2    
    63   30   32 1    
    64   32   33 1    
    65   32   34 1    
    66   32  100 1    
    67   33  101 1    
    68   33  102 1    
    69   33  103 1    
    70   34   35 am   BACKBONE|DICT|INTERRES
    71   34  104 1    
    72   35   36 2    
    73   37   38 2    
    74   37   39 am   BACKBONE|DICT|INTERRES
    75   39   40 1    
    76   39  105 1    
    77   40   41 1    
    78   40   42 1    
    79   40  106 1    
    80   41  107 1    
    81   41  108 1    
    82   41  109 1    
    83   42   43 2    
    84   42   44 am   BACKBONE|DICT|INTERRES
    85   44   45 1    
    86   44  110 1    
    87   45   46 1    
    88   45   47 1    
    89   45  111 1    
    90   46  112 1    
    91   46  113 1    
    92   46  114 1    
    93   47   48 2    
    94   47   49 am   BACKBONE|DICT|INTERRES
    95   49   50 1    
    96   49  115 1    
    97   50   51 1    
    98   50   52 1    
    99   50  116 1    
   100   51  117 1    
   101   51  118 1    
   102   51  119 1    
   103   52   53 2    
   104   52   54 am   BACKBONE|DICT|INTERRES
   105   54   55 1    
   106   54  120 1    
   107   55   56 1    
   108   55   57 1    
   109   55  121 1    
   110   56  122 1    
   111   56  123 1    
   112   56  124 1    
   113   57   58 2    
   114   57   59 am   BACKBONE|DICT|INTERRES
   115   59   60 1    
   116   59  125 1    
   117   60   61 1    
   118   60   62 1    
   119   60  126 1    
   120   61  127 1    
   121   61  128 1    
   122   61  129 1    
   123   62   63 2    
   124   62   64 am   BACKBONE|DICT|INTERRES
   125   64   65 1    
   126   64  130 1    
   127   65   66 1    
   128   65   69 1    
   129   65  131 1    
   130   66   67 am   BACKBONE|DICT|INTERRES
   131   66   68 2    
   132   67  132 1    
   133   67  133 1    
   134   69   70 1    
   135   69  134 1    
   136   69  135 1    
   137   70   71 1    
   138   71  136 1    
   139   71  137 1    
@<TRIPOS>SUBSTRUCTURE
     1 UNK         1 GROUP             0       ****    0 ROOT    
