@<TRIPOS>MOLECULE
3R137
137   139    1
SMALL
USER_CHARGES


@<TRIPOS>ATOM
      1 CA         28.5042   -6.4872   -0.3229 C.3       0 UNK        -0.2020 
      2 C          27.4865   -5.5486    0.3079 C.2       0 UNK         0.4855 
      3 O          26.5105   -6.0096    0.8997 O.2       0 UNK        -0.5197 
      4 N          27.7063   -4.2331    0.1845 N.am      1 UNK        -0.4892 
      5 CA         26.8248   -3.1786    0.7045 C.3       1 UNK         0.0835 
      6 C6         27.5770   -1.8267    0.8363 C.3       12 UNK        -0.0855 
      7 S7         28.0804   -1.0948   -0.7618 S.3       12 UNK        -0.2931 
      8 C8         29.8293   -1.5715   -0.8834 C.3       12 UNK         0.0378 
      9 C9         30.2381   -1.7137   -2.3410 C.ar      12 UNK        -0.0802 
     10 C10        30.9102   -0.6771   -2.9965 C.ar      12 UNK        -0.0944 
     11 C11        31.2939   -0.8186   -4.3338 C.ar      12 UNK        -0.0787 
     12 C12        31.0053   -2.0061   -5.0109 C.ar      12 UNK        -0.0862 
     13 C13        30.3150   -3.0405   -4.3744 C.ar      12 UNK        -0.0733 
     14 C14        29.9383   -2.8893   -3.0372 C.ar      12 UNK        -0.0832 
     15 C15        29.9897   -4.3278   -5.1225 C.3       12 UNK         0.0240 
     16 S16        28.9977   -4.0509   -6.6274 S.3       12 UNK        -0.2522 
     17 C17        27.4603   -3.3288   -5.9590 C.3       12 UNK        -0.0967 
     18 CA         26.9940   -2.0963   -6.7739 C.3       5 UNK         0.0660 
     19 N          25.5644   -1.8360   -6.5990 N.am      5 UNK        -0.4015 
     20 C          24.8037   -1.1658   -7.4772 C.2       4 UNK         0.4946 
     21 O          25.2119   -0.7559   -8.5631 O.2       4 UNK        -0.5353 
     22 CA         23.3422   -0.8884   -7.0796 C.3       4 UNK         0.0277 
     23 CB         22.4248   -2.0121   -7.5879 C.3       4 UNK        -0.1981 
     24 N          23.1526   -0.7206   -5.6367 N.am      4 UNK        -0.4209 
     25 C          23.6615    0.2902   -4.9181 C.2       3 UNK         0.4942 
     26 O          24.3030    1.2187   -5.4054 O.2       3 UNK        -0.5208 
     27 CA         23.4745    0.2249   -3.3927 C.3       3 UNK         0.0250 
     28 CB         22.1597    0.9059   -2.9817 C.3       3 UNK        -0.1990 
     29 N          23.5185   -1.1356   -2.8425 N.am      3 UNK        -0.4232 
     30 C          24.5473   -1.9839   -2.9768 C.2       2 UNK         0.4993 
     31 O          25.5612   -1.7374   -3.6363 O.2       2 UNK        -0.5286 
     32 CA         24.4088   -3.3537   -2.3002 C.3       2 UNK         0.0209 
     33 CB         24.4581   -4.4843   -3.3417 C.3       2 UNK        -0.1931 
     34 N          25.4965   -3.5326   -1.3440 N.am      2 UNK        -0.4546 
     35 C          25.5112   -3.0318   -0.1005 C.2       1 UNK         0.5154 
     36 O          24.5458   -2.4639    0.4140 O.2       1 UNK        -0.5181 
     37 C          27.8105   -0.8290   -6.4568 C.2       5 UNK         0.5014 
     38 O          28.7179   -0.4925   -7.2164 O.2       5 UNK        -0.5248 
     39 N          27.4388   -0.1201   -5.3794 N.am      6 UNK        -0.4434 
     40 CA         28.0411    1.1555   -4.9801 C.3       6 UNK         0.0363 
     41 CB         27.4867    1.5805   -3.6131 C.3       6 UNK        -0.1936 
     42 C          27.8454    2.2815   -6.0119 C.2       6 UNK         0.5081 
     43 O          28.7518    3.0935   -6.1976 O.2       6 UNK        -0.5248 
     44 N          26.6708    2.3170   -6.6562 N.am      7 UNK        -0.4718 
     45 CA         26.3234    3.2782   -7.7060 C.3       7 UNK         0.0273 
     46 CB         24.7968    3.2923   -7.8869 C.3       7 UNK        -0.1935 
     47 C          27.0142    3.0027   -9.0540 C.2       7 UNK         0.5018 
     48 O          27.1466    3.9298   -9.8551 O.2       7 UNK        -0.5186 
     49 N          27.4178    1.7495   -9.2984 N.am      8 UNK        -0.4240 
     50 CA         28.1239    1.3277  -10.5081 C.3       8 UNK         0.0235 
     51 CB         27.9314   -0.1875  -10.6937 C.3       8 UNK        -0.2000 
     52 C          29.6191    1.6691  -10.4289 C.2       8 UNK         0.4941 
     53 O          30.1662    1.8363   -9.3368 O.2       8 UNK        -0.5273 
     54 N          30.2907    1.6773  -11.5877 N.am      9 UNK        -0.4262 
     55 CA         31.7399    1.8811  -11.7325 C.3       9 UNK         0.0264 
     56 CB         32.0384    2.3213  -13.1782 C.3       9 UNK        -0.1955 
     57 C          32.5834    0.6565  -11.3032 C.2       9 UNK         0.5031 
     58 O          33.6011    0.3576  -11.9308 O.2       9 UNK        -0.5390 
     59 N          32.1435   -0.0378  -10.2475 N.am      10 UNK        -0.4204 
     60 CA         32.8028   -1.1968   -9.6470 C.3       10 UNK         0.0237 
     61 CB         31.7449   -2.0370   -8.9136 C.3       10 UNK        -0.1985 
     62 C          33.9448   -0.7972   -8.6964 C.2       10 UNK         0.4970 
     63 O          34.8500   -1.6037   -8.4799 O.2       10 UNK        -0.4914 
     64 N          33.8874    0.4290   -8.1642 N.am      11 UNK        -0.4285 
     65 CA         34.9260    1.0565   -7.3391 C.3       11 UNK         0.1007 
     66 C          35.5592    2.2444   -8.1075 C.2       11 UNK         0.5703 
     67 N          36.8322    2.5291   -7.8696 N.am      11 UNK        -0.7361 
     68 O          34.9024    2.9290   -8.8914 O.2       11 UNK        -0.4986 
     69 C69        34.3609    1.5287   -5.9741 C.3       12 UNK        -0.0947 
     70 S70        33.8078    0.1383   -4.9325 S.3       12 UNK        -0.2240 
     71 C71        32.0040    0.3129   -5.0582 C.3       12 UNK         0.0194 
     72 H72        29.3305   -5.9467   -0.7841 H         1 UNK         0.0906 
     73 H73        28.9174   -7.1543    0.4332 H         1 UNK         0.0906 
     74 H74        28.0270   -7.0968   -1.0899 H         1 UNK         0.0906 
     75 H75        28.5275   -3.9071   -0.3012 H         1 UNK         0.3140 
     76 H76        26.5241   -3.4772    1.7117 H         1 UNK         0.1085 
     77 H77        26.9432   -1.1006    1.3491 H         1 UNK         0.0836 
     78 H78        28.4525   -1.9447    1.4769 H         1 UNK         0.0836 
     79 H79        30.0074   -2.5131   -0.3630 H         1 UNK         0.0731 
     80 H80        30.4419   -0.8225   -0.3791 H         1 UNK         0.0731 
     81 H81        31.1335    0.2395   -2.4678 H         1 UNK         0.1312 
     82 H82        31.3036   -2.1218   -6.0417 H         1 UNK         0.1406 
     83 H83        29.4083   -3.6872   -2.5372 H         1 UNK         0.1631 
     84 H84        29.4592   -5.0315   -4.4791 H         1 UNK         0.0717 
     85 H85        30.9240   -4.8148   -5.4047 H         1 UNK         0.0717 
     86 H86        26.7031   -4.1127   -6.0064 H         1 UNK         0.0934 
     87 H87        27.5701   -3.0857   -4.9005 H         1 UNK         0.0934 
     88 H88        27.1501   -2.3222   -7.8317 H         1 UNK         0.0739 
     89 H89        25.1816   -2.0617   -5.6895 H         1 UNK         0.3093 
     90 H90        23.0435    0.0431   -7.5655 H         1 UNK         0.0818 
     91 H91        21.3761   -1.7886   -7.3913 H         1 UNK         0.0819 
     92 H92        22.5292   -2.1417   -8.6662 H         1 UNK         0.0819 
     93 H93        22.6589   -2.9697   -7.1209 H         1 UNK         0.0819 
     94 H94        22.6291   -1.4366   -5.1545 H         1 UNK         0.3041 
     95 H95        24.2994    0.7801   -2.9420 H         1 UNK         0.0784 
     96 H96        22.1141    1.9272   -3.3632 H         1 UNK         0.0793 
     97 H97        21.2893    0.3744   -3.3685 H         1 UNK         0.0793 
     98 H98        22.0644    0.9640   -1.8972 H         1 UNK         0.0793 
     99 H99        22.7269   -1.4169   -2.2813 H         1 UNK         0.3024 
    100 H100       23.4524   -3.4104   -1.7750 H         1 UNK         0.1171 
    101 H101       24.3252   -5.4590   -2.8716 H         1 UNK         0.0786 
    102 H102       23.6644   -4.3712   -4.0813 H         1 UNK         0.0786 
    103 H103       25.4067   -4.5014   -3.8792 H         1 UNK         0.0786 
    104 H104       26.3499   -3.9377   -1.6973 H         1 UNK         0.2977 
    105 H105       26.7095   -0.4941   -4.7798 H         1 UNK         0.3127 
    106 H106       29.1141    0.9900   -4.8759 H         1 UNK         0.0770 
    107 H107       26.4158    1.7785   -3.6553 H         1 UNK         0.0814 
    108 H108       27.9741    2.4905   -3.2610 H         1 UNK         0.0814 
    109 H109       27.6570    0.8107   -2.8629 H         1 UNK         0.0814 
    110 H110       25.9367    1.6777   -6.3627 H         1 UNK         0.2983 
    111 H111       26.6377    4.2713   -7.3773 H         1 UNK         0.0947 
    112 H112       24.4981    4.0107   -8.6515 H         1 UNK         0.0806 
    113 H113       24.2908    3.5738   -6.9632 H         1 UNK         0.0806 
    114 H114       24.4199    2.3144   -8.1901 H         1 UNK         0.0806 
    115 H115       27.3324    1.0625   -8.5613 H         1 UNK         0.3000 
    116 H116       27.6928    1.8444  -11.3684 H         1 UNK         0.0850 
    117 H117       28.4042   -0.5384  -11.6117 H         1 UNK         0.0810 
    118 H118       26.8744   -0.4468  -10.7574 H         1 UNK         0.0810 
    119 H119       28.3638   -0.7544   -9.8684 H         1 UNK         0.0810 
    120 H120       29.7833    1.4835  -12.4397 H         1 UNK         0.3040 
    121 H121       32.0332    2.7014  -11.0734 H         1 UNK         0.0766 
    122 H122       31.8005    1.5351  -13.8958 H         1 UNK         0.0812 
    123 H123       33.0932    2.5698  -13.3039 H         1 UNK         0.0812 
    124 H124       31.4677    3.2096  -13.4496 H         1 UNK         0.0812 
    125 H125       31.3253    0.3288   -9.7684 H         1 UNK         0.3205 
    126 H126       33.2363   -1.8091  -10.4406 H         1 UNK         0.0754 
    127 H127       32.1997   -2.8719   -8.3784 H         1 UNK         0.0769 
    128 H128       31.0210   -2.4567   -9.6122 H         1 UNK         0.0769 
    129 H129       31.1917   -1.4385   -8.1894 H         1 UNK         0.0769 
    130 H130       33.1386    1.0433   -8.4479 H         1 UNK         0.2981 
    131 H131       35.7235    0.3372   -7.1426 H         1 UNK         0.0541 
    132 H132       37.2576    3.3061   -8.3508 H         1 UNK         0.3459 
    133 H133       37.3772    1.9834   -7.2200 H         1 UNK         0.3459 
    134 H134       33.5419    2.2366   -6.1157 H         1 UNK         0.0612 
    135 H135       35.1279    2.0629   -5.4103 H         1 UNK         0.0612 
    136 H136       31.7086    0.3237   -6.1090 H         1 UNK         0.0624 
    137 H137       31.7028    1.2755   -4.6420 H         1 UNK         0.0624 
@<TRIPOS>BOND
     1    1    2 1    
     2    1   72 1    
     3    1   73 1    
     4    1   74 1    
     5    2    3 2    
     6    2    4 am   BACKBONE|DICT|INTERRES
     7    4    5 1    
     8    4   75 1    
     9    5    6 1    
    10    5   35 1    
    11    5   76 1    
    12    6    7 1    
    13    6   77 1    
    14    6   78 1    
    15    7    8 1    
    16    8    9 1    
    17    8   79 1    
    18    8   80 1    
    19    9   10 ar   
    20    9   14 ar   
    21   10   11 ar   
    22   10   81 1    
    23   11   12 ar   
    24   11   71 1    
    25   12   13 ar   
    26   12   82 1    
    27   13   14 ar   
    28   13   15 1    
    29   14   83 1    
    30   15   16 1    
    31   15   84 1    
    32   15   85 1    
    33   16   17 1    
    34   17   18 1    
    35   17   86 1    
    36   17   87 1    
    37   18   19 1    
    38   18   37 1    
    39   18   88 1    
    40   19   20 am   BACKBONE|DICT|INTERRES
    41   19   89 1    
    42   20   21 2    
    43   20   22 1    
    44   22   23 1    
    45   22   24 1    
    46   22   90 1    
    47   23   91 1    
    48   23   92 1    
    49   23   93 1    
    50   24   25 am   BACKBONE|DICT|INTERRES
    51   24   94 1    
    52   25   26 2    
    53   25   27 1    
    54   27   28 1    
    55   27   29 1    
    56   27   95 1    
    57   28   96 1    
    58   28   97 1    
    59   28   98 1    
    60   29   30 am   BACKBONE|DICT|INTERRES
    61   29   99 1    
    62   30   31 2    
    63   30   32 1    
    64   32   33 1    
    65   32   34 1    
    66   32  100 1    
    67   33  101 1    
    68   33  102 1    
    69   33  103 1    
    70   34   35 am   BACKBONE|DICT|INTERRES
    71   34  104 1    
    72   35   36 2    
    73   37   38 2    
    74   37   39 am   BACKBONE|DICT|INTERRES
    75   39   40 1    
    76   39  105 1    
    77   40   41 1    
    78   40   42 1    
    79   40  106 1    
    80   41  107 1    
    81   41  108 1    
    82   41  109 1    
    83   42   43 2    
    84   42   44 am   BACKBONE|DICT|INTERRES
    85   44   45 1    
    86   44  110 1    
    87   45   46 1    
    88   45   47 1    
    89   45  111 1    
    90   46  112 1    
    91   46  113 1    
    92   46  114 1    
    93   47   48 2    
    94   47   49 am   BACKBONE|DICT|INTERRES
    95   49   50 1    
    96   49  115 1    
    97   50   51 1    
    98   50   52 1    
    99   50  116 1    
   100   51  117 1    
   101   51  118 1    
   102   51  119 1    
   103   52   53 2    
   104   52   54 am   BACKBONE|DICT|INTERRES
   105   54   55 1    
   106   54  120 1    
   107   55   56 1    
   108   55   57 1    
   109   55  121 1    
   110   56  122 1    
   111   56  123 1    
   112   56  124 1    
   113   57   58 2    
   114   57   59 am   BACKBONE|DICT|INTERRES
   115   59   60 1    
   116   59  125 1    
   117   60   61 1    
   118   60   62 1    
   119   60  126 1    
   120   61  127 1    
   121   61  128 1    
   122   61  129 1    
   123   62   63 2    
   124   62   64 am   BACKBONE|DICT|INTERRES
   125   64   65 1    
   126   64  130 1    
   127   65   66 1    
   128   65   69 1    
   129   65  131 1    
   130   66   67 am   BACKBONE|DICT|INTERRES
   131   66   68 2    
   132   67  132 1    
   133   67  133 1    
   134   69   70 1    
   135   69  134 1    
   136   69  135 1    
   137   70   71 1    
   138   71  136 1    
   139   71  137 1    
@<TRIPOS>SUBSTRUCTURE
     1 UNK         1 GROUP             0       ****    0 ROOT    
