@<TRIPOS>MOLECULE
3R137
137   139    1
SMALL
USER_CHARGES


@<TRIPOS>ATOM
      1 CA         29.4149   -2.9657    3.0700 C.3       0 UNK        -0.2020 
      2 C          28.1661   -3.8427    2.9970 C.2       0 UNK         0.4855 
      3 O          27.9111   -4.5967    3.9342 O.2       0 UNK        -0.5197 
      4 N          27.3587   -3.7922    1.9307 N.am      1 UNK        -0.4892 
      5 CA         27.4651   -2.9441    0.7437 C.3       1 UNK         0.0835 
      6 C6         28.6580   -3.3191   -0.1816 C.3       12 UNK        -0.0855 
      7 S7         29.3403   -1.8519   -1.0280 S.3       12 UNK        -0.2931 
      8 C8         30.8797   -2.5269   -1.7272 C.3       12 UNK         0.0378 
      9 C9         30.7588   -2.8177   -3.2176 C.ar      12 UNK        -0.0802 
     10 C10        31.5313   -2.0972   -4.1333 C.ar      12 UNK        -0.0944 
     11 C11        31.4835   -2.3896   -5.5031 C.ar      12 UNK        -0.0787 
     12 C12        30.6300   -3.4076   -5.9432 C.ar      12 UNK        -0.0862 
     13 C13        29.8358   -4.1259   -5.0437 C.ar      12 UNK        -0.0733 
     14 C14        29.9125   -3.8294   -3.6803 C.ar      12 UNK        -0.0832 
     15 C15        28.9363   -5.2607   -5.5260 C.3       12 UNK         0.0240 
     16 S16        27.8537   -4.8057   -6.9224 S.3       12 UNK        -0.2522 
     17 C17        26.7265   -3.5911   -6.1598 C.3       12 UNK        -0.0967 
     18 CA         26.5006   -2.3577   -7.0693 C.3       5 UNK         0.0660 
     19 N          25.2670   -1.6430   -6.7320 N.am      5 UNK        -0.4015 
     20 C          24.6953   -0.7041   -7.5008 C.2       4 UNK         0.4946 
     21 O          25.1267   -0.3566   -8.5991 O.2       4 UNK        -0.5353 
     22 CA         23.4507   -0.0037   -6.9321 C.3       4 UNK         0.0277 
     23 CB         22.1945   -0.8619   -7.1512 C.3       4 UNK        -0.1981 
     24 N          23.5876    0.3228   -5.5114 N.am      4 UNK        -0.4209 
     25 C          24.4813    1.1936   -5.0207 C.2       3 UNK         0.4942 
     26 O          25.2550    1.8491   -5.7163 O.2       3 UNK        -0.5208 
     27 CA         24.5566    1.3215   -3.4914 C.3       3 UNK         0.0250 
     28 CB         23.5276    2.3441   -2.9834 C.3       3 UNK        -0.1990 
     29 N          24.3829    0.0498   -2.7802 N.am      3 UNK        -0.4232 
     30 C          25.1690   -1.0245   -2.9328 C.2       2 UNK         0.4993 
     31 O          26.0976   -1.0947   -3.7417 O.2       2 UNK        -0.5286 
     32 CA         24.8913   -2.2193   -2.0220 C.3       2 UNK         0.0209 
     33 CB         24.6133   -3.5000   -2.8308 C.3       2 UNK        -0.1931 
     34 N          26.0739   -2.3880   -1.1895 N.am      2 UNK        -0.4546 
     35 C          26.1085   -2.9676    0.0127 C.2       1 UNK         0.5154 
     36 O          25.1285   -3.4986    0.5453 O.2       1 UNK        -0.5181 
     37 C          27.7074   -1.4031   -7.0607 C.2       5 UNK         0.5014 
     38 O          28.4685   -1.3784   -8.0299 O.2       5 UNK        -0.5248 
     39 N          27.8215   -0.5991   -5.9926 N.am      6 UNK        -0.4434 
     40 CA         28.8563    0.4211   -5.8309 C.3       6 UNK         0.0363 
     41 CB         28.7452    1.0641   -4.4415 C.3       6 UNK        -0.1936 
     42 C          28.8374    1.4858   -6.9394 C.2       6 UNK         0.5081 
     43 O          29.9062    1.9022   -7.3844 O.2       6 UNK        -0.5248 
     44 N          27.6413    1.8844   -7.3912 N.am      7 UNK        -0.4718 
     45 CA         27.4522    2.7610   -8.5456 C.3       7 UNK         0.0273 
     46 CB         26.0026    3.2714   -8.5849 C.3       7 UNK        -0.1935 
     47 C          27.8319    2.0728   -9.8666 C.2       7 UNK         0.5018 
     48 O          28.6418    2.6211  -10.6145 O.2       7 UNK        -0.5186 
     49 N          27.2550    0.8892  -10.1280 N.am      8 UNK        -0.4240 
     50 CA         27.4251    0.1336  -11.3746 C.3       8 UNK         0.0235 
     51 CB         26.4919   -1.0878  -11.3791 C.3       8 UNK        -0.2000 
     52 C          28.8721   -0.3005  -11.6524 C.2       8 UNK         0.4941 
     53 O          29.3305   -0.1698  -12.7881 O.2       8 UNK        -0.5273 
     54 N          29.5667   -0.7921  -10.6184 N.am      9 UNK        -0.4262 
     55 CA         30.9655   -1.2226  -10.6968 C.3       9 UNK         0.0264 
     56 CB         31.1541   -2.4631   -9.8111 C.3       9 UNK        -0.1955 
     57 C          31.9697   -0.0995  -10.3649 C.2       9 UNK         0.5031 
     58 O          33.1723   -0.3657  -10.3507 O.2       9 UNK        -0.5390 
     59 N          31.4757    1.1285  -10.1418 N.am      10 UNK        -0.4204 
     60 CA         32.2273    2.3749   -9.9506 C.3       10 UNK         0.0237 
     61 CB         32.9464    2.7778  -11.2564 C.3       10 UNK        -0.1985 
     62 C          33.1608    2.3773   -8.7225 C.2       10 UNK         0.4970 
     63 O          34.2767    2.8962   -8.7994 O.2       10 UNK        -0.4914 
     64 N          32.6698    1.8388   -7.6016 N.am      11 UNK        -0.4285 
     65 CA         33.2651    2.0217   -6.2686 C.3       11 UNK         0.1007 
     66 C          32.7991    3.3439   -5.5970 C.2       11 UNK         0.5703 
     67 N          31.6378    3.8869   -5.9477 N.am      11 UNK        -0.7361 
     68 O          33.5070    3.8878   -4.7531 O.2       11 UNK        -0.4986 
     69 C69        32.9907    0.8200   -5.3300 C.3       12 UNK        -0.0947 
     70 S70        33.7657   -0.7225   -5.9160 S.3       12 UNK        -0.2240 
     71 C71        32.3212   -1.6416   -6.5458 C.3       12 UNK         0.0194 
     72 H72        29.5907   -2.6543    4.0995 H         1 UNK         0.0906 
     73 H73        30.2870   -3.5292    2.7398 H         1 UNK         0.0906 
     74 H74        29.3438   -2.0615    2.4688 H         1 UNK         0.0906 
     75 H75        26.5036   -4.3375    1.9315 H         1 UNK         0.3140 
     76 H76        27.5783   -1.9168    1.0957 H         1 UNK         0.1085 
     77 H77        29.4672   -3.7646    0.3970 H         1 UNK         0.0836 
     78 H78        28.3761   -4.0805   -0.9105 H         1 UNK         0.0836 
     79 H79        31.6777   -1.8057   -1.5437 H         1 UNK         0.0731 
     80 H80        31.1753   -3.4367   -1.2033 H         1 UNK         0.0731 
     81 H81        32.1826   -1.3197   -3.7632 H         1 UNK         0.1312 
     82 H82        30.5807   -3.6507   -6.9949 H         1 UNK         0.1406 
     83 H83        29.3229   -4.3966   -2.9750 H         1 UNK         0.1631 
     84 H84        28.3128   -5.6366   -4.7131 H         1 UNK         0.0717 
     85 H85        29.5690   -6.0933   -5.8361 H         1 UNK         0.0717 
     86 H86        25.7805   -4.1062   -5.9858 H         1 UNK         0.0934 
     87 H87        27.0927   -3.2946   -5.1747 H         1 UNK         0.0934 
     88 H88        26.3778   -2.7133   -8.0950 H         1 UNK         0.0739 
     89 H89        24.8854   -1.8125   -5.8136 H         1 UNK         0.3093 
     90 H90        23.3225    0.9333   -7.4788 H         1 UNK         0.0818 
     91 H91        21.2945   -0.3358   -6.8323 H         1 UNK         0.0819 
     92 H92        22.0683   -1.1032   -8.2077 H         1 UNK         0.0819 
     93 H93        22.2439   -1.8049   -6.6055 H         1 UNK         0.0819 
     94 H94        22.9838   -0.1628   -4.8642 H         1 UNK         0.3041 
     95 H95        25.5531    1.6951   -3.2473 H         1 UNK         0.0784 
     96 H96        23.6506    3.3039   -3.4876 H         1 UNK         0.0793 
     97 H97        22.5037    2.0122   -3.1600 H         1 UNK         0.0793 
     98 H98        23.6428    2.5263   -1.9147 H         1 UNK         0.0793 
     99 H99        23.6483    0.0222   -2.0872 H         1 UNK         0.3024 
    100 H100       24.0269   -2.0022   -1.3900 H         1 UNK         0.1171 
    101 H101       23.7832   -3.3561   -3.5233 H         1 UNK         0.0786 
    102 H102       24.3476   -4.3297   -2.1756 H         1 UNK         0.0786 
    103 H103       25.4822   -3.8055   -3.4134 H         1 UNK         0.0786 
    104 H104       26.9229   -1.9748   -1.5606 H         1 UNK         0.2977 
    105 H105       27.1613   -0.7069   -5.2242 H         1 UNK         0.3127 
    106 H106       29.8153   -0.0919   -5.8896 H         1 UNK         0.0770 
    107 H107       27.7903    1.5735   -4.3105 H         1 UNK         0.0814 
    108 H108       29.5349    1.8010   -4.2885 H         1 UNK         0.0814 
    109 H109       28.8392    0.3171   -3.6524 H         1 UNK         0.0814 
    110 H110       26.8030    1.5614   -6.9167 H         1 UNK         0.2983 
    111 H111       28.1089    3.6254   -8.4234 H         1 UNK         0.0947 
    112 H112       25.8404    3.9245   -9.4433 H         1 UNK         0.0806 
    113 H113       25.7635    3.8464   -7.6901 H         1 UNK         0.0806 
    114 H114       25.2849    2.4534   -8.6544 H         1 UNK         0.0806 
    115 H115       26.5963    0.5020   -9.4551 H         1 UNK         0.3000 
    116 H116       27.1221    0.7908  -12.1924 H         1 UNK         0.0850 
    117 H117       26.6030   -1.6645  -12.2984 H         1 UNK         0.0810 
    118 H118       25.4463   -0.7870  -11.3110 H         1 UNK         0.0810 
    119 H119       26.7022   -1.7573  -10.5440 H         1 UNK         0.0810 
    120 H120       29.1087   -0.8922   -9.7120 H         1 UNK         0.3040 
    121 H121       31.1920   -1.5287  -11.7203 H         1 UNK         0.0766 
    122 H122       32.1982   -2.7758   -9.7693 H         1 UNK         0.0812 
    123 H123       30.5790   -3.3068  -10.1925 H         1 UNK         0.0812 
    124 H124       30.8184   -2.2739   -8.7956 H         1 UNK         0.0812 
    125 H125       30.4694    1.2383  -10.1661 H         1 UNK         0.3205 
    126 H126       31.4760    3.1397   -9.7473 H         1 UNK         0.0754 
    127 H127       33.3931    3.7691  -11.1692 H         1 UNK         0.0769 
    128 H128       32.2520    2.8109  -12.0962 H         1 UNK         0.0769 
    129 H129       33.7463    2.0810  -11.5091 H         1 UNK         0.0769 
    130 H130       31.6991    1.5375   -7.6119 H         1 UNK         0.2981 
    131 H131       34.3484    2.1011   -6.3792 H         1 UNK         0.0541 
    132 H132       31.3435    4.7481   -5.5161 H         1 UNK         0.3459 
    133 H133       31.0285    3.4080   -6.5998 H         1 UNK         0.3459 
    134 H134       31.9183    0.6751   -5.1968 H         1 UNK         0.0612 
    135 H135       33.3936    1.0155   -4.3344 H         1 UNK         0.0612 
    136 H136       31.6808   -0.9554   -7.1004 H         1 UNK         0.0624 
    137 H137       32.7027   -2.3638   -7.2684 H         1 UNK         0.0624 
@<TRIPOS>BOND
     1    1    2 1    
     2    1   72 1    
     3    1   73 1    
     4    1   74 1    
     5    2    3 2    
     6    2    4 am   BACKBONE|DICT|INTERRES
     7    4    5 1    
     8    4   75 1    
     9    5    6 1    
    10    5   35 1    
    11    5   76 1    
    12    6    7 1    
    13    6   77 1    
    14    6   78 1    
    15    7    8 1    
    16    8    9 1    
    17    8   79 1    
    18    8   80 1    
    19    9   10 ar   
    20    9   14 ar   
    21   10   11 ar   
    22   10   81 1    
    23   11   12 ar   
    24   11   71 1    
    25   12   13 ar   
    26   12   82 1    
    27   13   14 ar   
    28   13   15 1    
    29   14   83 1    
    30   15   16 1    
    31   15   84 1    
    32   15   85 1    
    33   16   17 1    
    34   17   18 1    
    35   17   86 1    
    36   17   87 1    
    37   18   19 1    
    38   18   37 1    
    39   18   88 1    
    40   19   20 am   BACKBONE|DICT|INTERRES
    41   19   89 1    
    42   20   21 2    
    43   20   22 1    
    44   22   23 1    
    45   22   24 1    
    46   22   90 1    
    47   23   91 1    
    48   23   92 1    
    49   23   93 1    
    50   24   25 am   BACKBONE|DICT|INTERRES
    51   24   94 1    
    52   25   26 2    
    53   25   27 1    
    54   27   28 1    
    55   27   29 1    
    56   27   95 1    
    57   28   96 1    
    58   28   97 1    
    59   28   98 1    
    60   29   30 am   BACKBONE|DICT|INTERRES
    61   29   99 1    
    62   30   31 2    
    63   30   32 1    
    64   32   33 1    
    65   32   34 1    
    66   32  100 1    
    67   33  101 1    
    68   33  102 1    
    69   33  103 1    
    70   34   35 am   BACKBONE|DICT|INTERRES
    71   34  104 1    
    72   35   36 2    
    73   37   38 2    
    74   37   39 am   BACKBONE|DICT|INTERRES
    75   39   40 1    
    76   39  105 1    
    77   40   41 1    
    78   40   42 1    
    79   40  106 1    
    80   41  107 1    
    81   41  108 1    
    82   41  109 1    
    83   42   43 2    
    84   42   44 am   BACKBONE|DICT|INTERRES
    85   44   45 1    
    86   44  110 1    
    87   45   46 1    
    88   45   47 1    
    89   45  111 1    
    90   46  112 1    
    91   46  113 1    
    92   46  114 1    
    93   47   48 2    
    94   47   49 am   BACKBONE|DICT|INTERRES
    95   49   50 1    
    96   49  115 1    
    97   50   51 1    
    98   50   52 1    
    99   50  116 1    
   100   51  117 1    
   101   51  118 1    
   102   51  119 1    
   103   52   53 2    
   104   52   54 am   BACKBONE|DICT|INTERRES
   105   54   55 1    
   106   54  120 1    
   107   55   56 1    
   108   55   57 1    
   109   55  121 1    
   110   56  122 1    
   111   56  123 1    
   112   56  124 1    
   113   57   58 2    
   114   57   59 am   BACKBONE|DICT|INTERRES
   115   59   60 1    
   116   59  125 1    
   117   60   61 1    
   118   60   62 1    
   119   60  126 1    
   120   61  127 1    
   121   61  128 1    
   122   61  129 1    
   123   62   63 2    
   124   62   64 am   BACKBONE|DICT|INTERRES
   125   64   65 1    
   126   64  130 1    
   127   65   66 1    
   128   65   69 1    
   129   65  131 1    
   130   66   67 am   BACKBONE|DICT|INTERRES
   131   66   68 2    
   132   67  132 1    
   133   67  133 1    
   134   69   70 1    
   135   69  134 1    
   136   69  135 1    
   137   70   71 1    
   138   71  136 1    
   139   71  137 1    
@<TRIPOS>SUBSTRUCTURE
     1 UNK         1 GROUP             0       ****    0 ROOT    
