@<TRIPOS>MOLECULE
3R137
137   139    1
SMALL
USER_CHARGES


@<TRIPOS>ATOM
      1 CA         23.3361   -2.0669    0.7426 C.3       0 UNK        -0.2020 
      2 C          24.7380   -1.5852    0.4029 C.2       0 UNK         0.4855 
      3 O          24.9237   -0.4062    0.1002 O.2       0 UNK        -0.5197 
      4 N          25.7302   -2.4850    0.4423 N.am      1 UNK        -0.4892 
      5 CA         27.1164   -2.2043    0.0529 C.3       1 UNK         0.0835 
      6 C6         28.0648   -3.3554    0.4672 C.3       12 UNK        -0.0855 
      7 S7         29.8142   -2.8329    0.5352 S.3       12 UNK        -0.2931 
      8 C8         30.6332   -4.0533   -0.5435 C.3       12 UNK         0.0378 
      9 C9         30.3497   -3.8005   -2.0173 C.ar      12 UNK        -0.0802 
     10 C10        31.0829   -2.8408   -2.7202 C.ar      12 UNK        -0.0944 
     11 C11        30.8208   -2.6020   -4.0718 C.ar      12 UNK        -0.0787 
     12 C12        29.8316   -3.3441   -4.7240 C.ar      12 UNK        -0.0862 
     13 C13        29.0656   -4.2881   -4.0272 C.ar      12 UNK        -0.0733 
     14 C14        29.3483   -4.5183   -2.6772 C.ar      12 UNK        -0.0832 
     15 C15        27.8891   -5.0460   -4.6480 C.3       12 UNK         0.0240 
     16 S16        27.7862   -5.0636   -6.4712 S.3       12 UNK        -0.2522 
     17 C17        27.1637   -3.3990   -6.8855 C.3       12 UNK        -0.0967 
     18 CA         25.6170   -3.3279   -6.9402 C.3       5 UNK         0.0660 
     19 N          25.0416   -3.1692   -5.6023 N.am      5 UNK        -0.4015 
     20 C          23.7696   -3.4351   -5.2773 C.2       4 UNK         0.4946 
     21 O          22.9592   -3.9674   -6.0366 O.2       4 UNK        -0.5353 
     22 CA         23.3204   -3.0023   -3.8712 C.3       4 UNK         0.0277 
     23 CB         23.6424   -4.0898   -2.8329 C.3       4 UNK        -0.1981 
     24 N          23.9299   -1.7265   -3.4772 N.am      4 UNK        -0.4209 
     25 C          23.5505   -0.5394   -3.9808 C.2       3 UNK         0.4942 
     26 O          22.5981   -0.4034   -4.7488 O.2       3 UNK        -0.5208 
     27 CA         24.3609    0.7118   -3.5942 C.3       3 UNK         0.0250 
     28 CB         23.6108    1.5355   -2.5353 C.3       3 UNK        -0.1990 
     29 N          25.7137    0.4176   -3.1176 N.am      3 UNK        -0.4232 
     30 C          26.7156   -0.0168   -3.8959 C.2       2 UNK         0.4993 
     31 O          26.6100   -0.2010   -5.1083 O.2       2 UNK        -0.5286 
     32 CA         28.0456   -0.3631   -3.2089 C.3       2 UNK         0.0209 
     33 CB         29.0122    0.8298   -3.2610 C.3       2 UNK        -0.1931 
     34 N          27.9063   -0.8297   -1.8259 N.am      2 UNK        -0.4546 
     35 C          27.1883   -1.8995   -1.4570 C.2       1 UNK         0.5154 
     36 O          26.5593   -2.6048   -2.2514 O.2       1 UNK        -0.5181 
     37 C          25.1739   -2.1791   -7.8692 C.2       5 UNK         0.5014 
     38 O          24.9222   -2.4238   -9.0495 O.2       5 UNK        -0.5248 
     39 N          25.1338   -0.9517   -7.3257 N.am      6 UNK        -0.4434 
     40 CA         24.9434    0.3332   -8.0097 C.3       6 UNK         0.0363 
     41 CB         23.5760    0.4074   -8.7211 C.3       6 UNK        -0.1936 
     42 C          26.1314    0.6970   -8.9248 C.2       6 UNK         0.5081 
     43 O          25.9584    1.4456   -9.8875 O.2       6 UNK        -0.5248 
     44 N          27.3199    0.1619   -8.6065 N.am      7 UNK        -0.4718 
     45 CA         28.5615    0.3825   -9.3504 C.3       7 UNK         0.0273 
     46 CB         29.5366   -0.7749   -9.0754 C.3       7 UNK        -0.1935 
     47 C          29.2126    1.7300   -9.0093 C.2       7 UNK         0.5018 
     48 O          29.7399    2.3884   -9.9069 O.2       7 UNK        -0.5186 
     49 N          29.1668    2.1104   -7.7221 N.am      8 UNK        -0.4240 
     50 CA         29.7364    3.3346   -7.1455 C.3       8 UNK         0.0235 
     51 CB         28.8454    4.5472   -7.4999 C.3       8 UNK        -0.2000 
     52 C          31.2217    3.5079   -7.5262 C.2       8 UNK         0.4941 
     53 O          32.0428    2.6808   -7.1294 O.2       8 UNK        -0.5273 
     54 N          31.5368    4.5387   -8.3216 N.am      9 UNK        -0.4262 
     55 CA         32.8775    4.8334   -8.8340 C.3       9 UNK         0.0264 
     56 CB         32.8622    6.2153   -9.5081 C.3       9 UNK        -0.1955 
     57 C          33.4461    3.7724   -9.7978 C.2       9 UNK         0.5031 
     58 O          34.6655    3.7239   -9.9651 O.2       9 UNK        -0.5390 
     59 N          32.5846    2.9470  -10.4128 N.am      10 UNK        -0.4204 
     60 CA         32.9890    1.8653  -11.3171 C.3       10 UNK         0.0237 
     61 CB         31.8588    1.5937  -12.3255 C.3       10 UNK        -0.1985 
     62 C          33.3824    0.5696  -10.5821 C.2       10 UNK         0.4970 
     63 O          33.8556   -0.3583  -11.2400 O.2       10 UNK        -0.4914 
     64 N          33.1669    0.5029   -9.2604 N.am      11 UNK        -0.4285 
     65 CA         33.5125   -0.6468   -8.4132 C.3       11 UNK         0.1007 
     66 C          35.0448   -0.8988   -8.3340 C.2       11 UNK         0.5703 
     67 N          35.4699   -2.1547   -8.3071 N.am      11 UNK        -0.7361 
     68 O          35.8452    0.0323   -8.2632 O.2       11 UNK        -0.4986 
     69 C69        32.8857   -0.4882   -7.0056 C.3       12 UNK        -0.0947 
     70 S70        32.5437   -2.0812   -6.1929 S.3       12 UNK        -0.2240 
     71 C71        31.5335   -1.4790   -4.8088 C.3       12 UNK         0.0194 
     72 H72        22.9585   -1.5350    1.6153 H         1 UNK         0.0906 
     73 H73        22.6625   -1.8738   -0.0920 H         1 UNK         0.0906 
     74 H74        23.3120   -3.1349    0.9581 H         1 UNK         0.0906 
     75 H75        25.5210   -3.4472    0.6674 H         1 UNK         0.3140 
     76 H76        27.4150   -1.3063    0.5992 H         1 UNK         0.1085 
     77 H77        27.9371   -4.2240   -0.1798 H         1 UNK         0.0836 
     78 H78        27.8080   -3.6992    1.4706 H         1 UNK         0.0836 
     79 H79        30.3276   -5.0607   -0.2563 H         1 UNK         0.0731 
     80 H80        31.7094   -4.0052   -0.3705 H         1 UNK         0.0731 
     81 H81        31.8395   -2.2640   -2.2057 H         1 UNK         0.1312 
     82 H82        29.6532   -3.1466   -5.7695 H         1 UNK         0.1406 
     83 H83        28.7663   -5.2480   -2.1311 H         1 UNK         0.1631 
     84 H84        26.9606   -4.6476   -4.2392 H         1 UNK         0.0717 
     85 H85        27.9382   -6.0864   -4.3233 H         1 UNK         0.0717 
     86 H86        27.5543   -2.6520   -6.1941 H         1 UNK         0.0934 
     87 H87        27.6005   -3.1601   -7.8579 H         1 UNK         0.0934 
     88 H88        25.2363   -4.2544   -7.3764 H         1 UNK         0.0739 
     89 H89        25.6323   -2.7468   -4.9008 H         1 UNK         0.3093 
     90 H90        22.2360   -2.8722   -3.8927 H         1 UNK         0.0818 
     91 H91        24.7062   -4.3247   -2.8001 H         1 UNK         0.0819 
     92 H92        23.3334   -3.7897   -1.8321 H         1 UNK         0.0819 
     93 H93        23.1167   -5.0158   -3.0694 H         1 UNK         0.0819 
     94 H94        24.7407   -1.7760   -2.8694 H         1 UNK         0.3041 
     95 H95        24.4520    1.3253   -4.4934 H         1 UNK         0.0784 
     96 H96        22.6272    1.8344   -2.9002 H         1 UNK         0.0793 
     97 H97        23.4560    0.9700   -1.6163 H         1 UNK         0.0793 
     98 H98        24.1518    2.4476   -2.2828 H         1 UNK         0.0793 
     99 H99        25.8731    0.5008   -2.1221 H         1 UNK         0.3024 
    100 H100       28.4778   -1.1822   -3.7815 H         1 UNK         0.1171 
    101 H101       29.9951    0.5597   -2.8743 H         1 UNK         0.0786 
    102 H102       29.1536    1.1744   -4.2863 H         1 UNK         0.0786 
    103 H103       28.6422    1.6756   -2.6801 H         1 UNK         0.0786 
    104 H104       28.3998   -0.3051   -1.1178 H         1 UNK         0.2977 
    105 H105       25.4517   -0.8514   -6.3636 H         1 UNK         0.3127 
    106 H106       24.9385    1.0871   -7.2210 H         1 UNK         0.0770 
    107 H107       23.5310   -0.2512   -9.5886 H         1 UNK         0.0814 
    108 H108       23.3755    1.4195   -9.0744 H         1 UNK         0.0814 
    109 H109       22.7646    0.1335   -8.0466 H         1 UNK         0.0814 
    110 H110       27.3691   -0.4208   -7.7841 H         1 UNK         0.2983 
    111 H111       28.3341    0.3882  -10.4191 H         1 UNK         0.0947 
    112 H112       30.4721   -0.6334   -9.6180 H         1 UNK         0.0806 
    113 H113       29.1200   -1.7280   -9.4013 H         1 UNK         0.0806 
    114 H114       29.7829   -0.8616   -8.0165 H         1 UNK         0.0806 
    115 H115       28.7178    1.4863   -7.0679 H         1 UNK         0.3000 
    116 H116       29.7151    3.2121   -6.0615 H         1 UNK         0.0850 
    117 H117       29.2251    5.4652   -7.0489 H         1 UNK         0.0810 
    118 H118       27.8326    4.4061   -7.1221 H         1 UNK         0.0810 
    119 H119       28.7697    4.7059   -8.5764 H         1 UNK         0.0810 
    120 H120       30.7912    5.1477   -8.6266 H         1 UNK         0.3040 
    121 H121       33.5530    4.8801   -7.9771 H         1 UNK         0.0766 
    122 H122       32.5541    6.9951   -8.8113 H         1 UNK         0.0812 
    123 H123       32.1854    6.2399  -10.3632 H         1 UNK         0.0812 
    124 H124       33.8553    6.4839   -9.8716 H         1 UNK         0.0812 
    125 H125       31.5900    3.0164  -10.2097 H         1 UNK         0.3205 
    126 H126       33.8642    2.1906  -11.8837 H         1 UNK         0.0754 
    127 H127       32.1842    0.8910  -13.0938 H         1 UNK         0.0769 
    128 H128       31.5493    2.5069  -12.8342 H         1 UNK         0.0769 
    129 H129       30.9807    1.1605  -11.8463 H         1 UNK         0.0769 
    130 H130       32.8169    1.3196   -8.7765 H         1 UNK         0.2981 
    131 H131       33.0544   -1.5143   -8.8932 H         1 UNK         0.0541 
    132 H132       34.8175   -2.9228   -8.3340 H         1 UNK         0.3459 
    133 H133       36.4589   -2.3376   -8.2431 H         1 UNK         0.3459 
    134 H134       33.5035    0.1344   -6.3552 H         1 UNK         0.0612 
    135 H135       31.9281    0.0275   -7.0893 H         1 UNK         0.0612 
    136 H136       30.7808   -0.7854   -5.1861 H         1 UNK         0.0624 
    137 H137       32.1685   -0.9066   -4.1308 H         1 UNK         0.0624 
@<TRIPOS>BOND
     1    1    2 1    
     2    1   72 1    
     3    1   73 1    
     4    1   74 1    
     5    2    3 2    
     6    2    4 am   BACKBONE|DICT|INTERRES
     7    4    5 1    
     8    4   75 1    
     9    5    6 1    
    10    5   35 1    
    11    5   76 1    
    12    6    7 1    
    13    6   77 1    
    14    6   78 1    
    15    7    8 1    
    16    8    9 1    
    17    8   79 1    
    18    8   80 1    
    19    9   10 ar   
    20    9   14 ar   
    21   10   11 ar   
    22   10   81 1    
    23   11   12 ar   
    24   11   71 1    
    25   12   13 ar   
    26   12   82 1    
    27   13   14 ar   
    28   13   15 1    
    29   14   83 1    
    30   15   16 1    
    31   15   84 1    
    32   15   85 1    
    33   16   17 1    
    34   17   18 1    
    35   17   86 1    
    36   17   87 1    
    37   18   19 1    
    38   18   37 1    
    39   18   88 1    
    40   19   20 am   BACKBONE|DICT|INTERRES
    41   19   89 1    
    42   20   21 2    
    43   20   22 1    
    44   22   23 1    
    45   22   24 1    
    46   22   90 1    
    47   23   91 1    
    48   23   92 1    
    49   23   93 1    
    50   24   25 am   BACKBONE|DICT|INTERRES
    51   24   94 1    
    52   25   26 2    
    53   25   27 1    
    54   27   28 1    
    55   27   29 1    
    56   27   95 1    
    57   28   96 1    
    58   28   97 1    
    59   28   98 1    
    60   29   30 am   BACKBONE|DICT|INTERRES
    61   29   99 1    
    62   30   31 2    
    63   30   32 1    
    64   32   33 1    
    65   32   34 1    
    66   32  100 1    
    67   33  101 1    
    68   33  102 1    
    69   33  103 1    
    70   34   35 am   BACKBONE|DICT|INTERRES
    71   34  104 1    
    72   35   36 2    
    73   37   38 2    
    74   37   39 am   BACKBONE|DICT|INTERRES
    75   39   40 1    
    76   39  105 1    
    77   40   41 1    
    78   40   42 1    
    79   40  106 1    
    80   41  107 1    
    81   41  108 1    
    82   41  109 1    
    83   42   43 2    
    84   42   44 am   BACKBONE|DICT|INTERRES
    85   44   45 1    
    86   44  110 1    
    87   45   46 1    
    88   45   47 1    
    89   45  111 1    
    90   46  112 1    
    91   46  113 1    
    92   46  114 1    
    93   47   48 2    
    94   47   49 am   BACKBONE|DICT|INTERRES
    95   49   50 1    
    96   49  115 1    
    97   50   51 1    
    98   50   52 1    
    99   50  116 1    
   100   51  117 1    
   101   51  118 1    
   102   51  119 1    
   103   52   53 2    
   104   52   54 am   BACKBONE|DICT|INTERRES
   105   54   55 1    
   106   54  120 1    
   107   55   56 1    
   108   55   57 1    
   109   55  121 1    
   110   56  122 1    
   111   56  123 1    
   112   56  124 1    
   113   57   58 2    
   114   57   59 am   BACKBONE|DICT|INTERRES
   115   59   60 1    
   116   59  125 1    
   117   60   61 1    
   118   60   62 1    
   119   60  126 1    
   120   61  127 1    
   121   61  128 1    
   122   61  129 1    
   123   62   63 2    
   124   62   64 am   BACKBONE|DICT|INTERRES
   125   64   65 1    
   126   64  130 1    
   127   65   66 1    
   128   65   69 1    
   129   65  131 1    
   130   66   67 am   BACKBONE|DICT|INTERRES
   131   66   68 2    
   132   67  132 1    
   133   67  133 1    
   134   69   70 1    
   135   69  134 1    
   136   69  135 1    
   137   70   71 1    
   138   71  136 1    
   139   71  137 1    
@<TRIPOS>SUBSTRUCTURE
     1 UNK         1 GROUP             0       ****    0 ROOT    
