@<TRIPOS>MOLECULE
3R137
137   139    1
SMALL
USER_CHARGES


@<TRIPOS>ATOM
      1 CA         29.0402    2.5190    1.2704 C.3       0 UNK        -0.2020 
      2 C          28.4759    1.1660    0.8629 C.2       0 UNK         0.4855 
      3 O          28.4374    0.2502    1.6851 O.2       0 UNK        -0.5197 
      4 N          28.0445    1.0374   -0.3995 N.am      1 UNK        -0.4892 
      5 CA         27.4232   -0.1565   -0.9853 C.3       1 UNK         0.0835 
      6 C6         28.3926   -1.3732   -1.0489 C.3       12 UNK        -0.0855 
      7 S7         27.9147   -2.5989   -2.3163 S.3       12 UNK        -0.2931 
      8 C8         29.3939   -3.6620   -2.3488 C.3       12 UNK         0.0378 
      9 C9         29.8752   -3.9204   -3.7702 C.ar      12 UNK        -0.0802 
     10 C10        31.1184   -3.4411   -4.1990 C.ar      12 UNK        -0.0944 
     11 C11        31.5846   -3.7311   -5.4853 C.ar      12 UNK        -0.0787 
     12 C12        30.7856   -4.4826   -6.3539 C.ar      12 UNK        -0.0862 
     13 C13        29.5404   -4.9642   -5.9388 C.ar      12 UNK        -0.0733 
     14 C14        29.0942   -4.6832   -4.6437 C.ar      12 UNK        -0.0832 
     15 C15        28.7058   -5.8381   -6.8672 C.3       12 UNK         0.0240 
     16 S16        27.8805   -4.8906   -8.1859 S.3       12 UNK        -0.2522 
     17 C17        26.6471   -3.9251   -7.2470 C.3       12 UNK        -0.0967 
     18 CA         26.5097   -2.4614   -7.7343 C.3       5 UNK         0.0660 
     19 N          25.3495   -1.8124   -7.1165 N.am      5 UNK        -0.4015 
     20 C          24.9449   -0.5485   -7.3090 C.2       4 UNK         0.4946 
     21 O          25.4909    0.2288   -8.0918 O.2       4 UNK        -0.5353 
     22 CA         23.7409   -0.0464   -6.4871 C.3       4 UNK         0.0277 
     23 CB         22.5606    0.2859   -7.4152 C.3       4 UNK        -0.1981 
     24 N          23.2797   -0.9619   -5.4345 N.am      4 UNK        -0.4209 
     25 C          23.9689   -1.2925   -4.3342 C.2       3 UNK         0.4942 
     26 O          25.1113   -0.8919   -4.0909 O.2       3 UNK        -0.5208 
     27 CA         23.2796   -2.2761   -3.3806 C.3       3 UNK         0.0250 
     28 CB         23.2926   -3.7043   -3.9554 C.3       3 UNK        -0.1990 
     29 N          23.9950   -2.2676   -2.1118 N.am      3 UNK        -0.4232 
     30 C          23.4515   -2.3160   -0.8898 C.2       2 UNK         0.4993 
     31 O          22.2444   -2.4455   -0.6816 O.2       2 UNK        -0.5286 
     32 CA         24.4149   -2.2055    0.3083 C.3       2 UNK         0.0209 
     33 CB         24.5695   -3.5683    1.0038 C.3       2 UNK        -0.1931 
     34 N          25.7411   -1.7213   -0.0848 N.am      2 UNK        -0.4546 
     35 C          26.0449   -0.4428   -0.3434 C.2       1 UNK         0.5154 
     36 O          25.2659    0.4916   -0.1391 O.2       1 UNK        -0.5181 
     37 C          27.8114   -1.6523   -7.5465 C.2       5 UNK         0.5014 
     38 O          28.5274   -1.4384   -8.5251 O.2       5 UNK        -0.5248 
     39 N          28.0584   -1.1584   -6.3226 N.am      6 UNK        -0.4434 
     40 CA         29.2161   -0.3165   -6.0095 C.3       6 UNK         0.0363 
     41 CB         29.3046   -0.0701   -4.4975 C.3       6 UNK        -0.1936 
     42 C          29.2219    1.0233   -6.7590 C.2       6 UNK         0.5081 
     43 O          30.2897    1.4743   -7.1670 O.2       6 UNK        -0.5248 
     44 N          28.0415    1.6292   -6.9426 N.am      7 UNK        -0.4718 
     45 CA         27.8741    2.8682   -7.7036 C.3       7 UNK         0.0273 
     46 CB         26.5065    3.4965   -7.3893 C.3       7 UNK        -0.1935 
     47 C          28.0449    2.6355   -9.2124 C.2       7 UNK         0.5018 
     48 O          28.7179    3.4278   -9.8713 O.2       7 UNK        -0.5186 
     49 N          27.4603    1.5412   -9.7206 N.am      8 UNK        -0.4240 
     50 CA         27.5420    1.1177  -11.1197 C.3       8 UNK         0.0235 
     51 CB         26.5717   -0.0505  -11.3596 C.3       8 UNK        -0.2000 
     52 C          28.9690    0.7420  -11.5532 C.2       8 UNK         0.4941 
     53 O          29.4088    1.1737  -12.6196 O.2       8 UNK        -0.5273 
     54 N          29.6684   -0.0403  -10.7201 N.am      9 UNK        -0.4262 
     55 CA         31.0475   -0.4769  -10.9564 C.3       9 UNK         0.0264 
     56 CB         31.2834   -1.7981  -10.2077 C.3       9 UNK        -0.1955 
     57 C          32.1074    0.5722  -10.5668 C.2       9 UNK         0.5031 
     58 O          33.2725    0.3901  -10.9238 O.2       9 UNK        -0.5390 
     59 N          31.7000    1.6333   -9.8524 N.am      10 UNK        -0.4204 
     60 CA         32.5267    2.7162   -9.3014 C.3       10 UNK         0.0237 
     61 CB         33.1508    3.5685  -10.4272 C.3       10 UNK        -0.1985 
     62 C          33.5590    2.2004   -8.2781 C.2       10 UNK         0.4970 
     63 O          34.7418    2.5399   -8.3565 O.2       10 UNK        -0.4914 
     64 N          33.0809    1.3721   -7.3446 N.am      11 UNK        -0.4285 
     65 CA         33.8565    0.7791   -6.2484 C.3       11 UNK         0.1007 
     66 C          34.1819    1.8128   -5.1372 C.2       11 UNK         0.5703 
     67 N          35.2962    1.6389   -4.4394 N.am      11 UNK        -0.7361 
     68 O          33.4233    2.7452   -4.8760 O.2       11 UNK        -0.4986 
     69 C69        33.1403   -0.4659   -5.6613 C.3       12 UNK        -0.0947 
     70 S70        32.9399   -1.7738   -6.9166 S.3       12 UNK        -0.2240 
     71 C71        32.9761   -3.2944   -5.9221 C.3       12 UNK         0.0194 
     72 H72        30.0704    2.4094    1.6083 H         1 UNK         0.0906 
     73 H73        29.0283    3.2326    0.4467 H         1 UNK         0.0906 
     74 H74        28.4558    2.9374    2.0896 H         1 UNK         0.0906 
     75 H75        28.0732    1.8442   -1.0078 H         1 UNK         0.3140 
     76 H76        27.1904    0.1261   -2.0132 H         1 UNK         0.1085 
     77 H77        29.3912   -1.0163   -1.3072 H         1 UNK         0.0836 
     78 H78        28.4962   -1.8597   -0.0770 H         1 UNK         0.0836 
     79 H79        29.1552   -4.6128   -1.8702 H         1 UNK         0.0731 
     80 H80        30.1932   -3.2183   -1.7536 H         1 UNK         0.0731 
     81 H81        31.7367   -2.8650   -3.5242 H         1 UNK         0.1312 
     82 H82        31.1428   -4.7114   -7.3488 H         1 UNK         0.1406 
     83 H83        28.1410   -5.0664   -4.3050 H         1 UNK         0.1631 
     84 H84        27.9556   -6.3964   -6.3047 H         1 UNK         0.0717 
     85 H85        29.3524   -6.5855   -7.3294 H         1 UNK         0.0717 
     86 H86        25.6920   -4.4419   -7.3548 H         1 UNK         0.0934 
     87 H87        26.8770   -3.9490   -6.1814 H         1 UNK         0.0934 
     88 H88        26.3049   -2.4851   -8.8066 H         1 UNK         0.0739 
     89 H89        24.8304   -2.3652   -6.4525 H         1 UNK         0.3093 
     90 H90        24.0611    0.8781   -6.0019 H         1 UNK         0.0818 
     91 H91        21.7345    0.7351   -6.8637 H         1 UNK         0.0819 
     92 H92        22.8564    1.0002   -8.1853 H         1 UNK         0.0819 
     93 H93        22.1839   -0.6024   -7.9238 H         1 UNK         0.0819 
     94 H94        22.3549   -1.3504   -5.5575 H         1 UNK         0.3041 
     95 H95        22.2495   -1.9445   -3.2323 H         1 UNK         0.0784 
     96 H96        22.7496   -3.7594   -4.8996 H         1 UNK         0.0793 
     97 H97        24.3090   -4.0565   -4.1380 H         1 UNK         0.0793 
     98 H98        22.8165   -4.4071   -3.2712 H         1 UNK         0.0793 
     99 H99        24.9875   -2.0892   -2.1985 H         1 UNK         0.3024 
    100 H100       23.9751   -1.5009    1.0181 H         1 UNK         0.1171 
    101 H101       25.2089   -3.4942    1.8838 H         1 UNK         0.0786 
    102 H102       23.6030   -3.9478    1.3386 H         1 UNK         0.0786 
    103 H103       25.0001   -4.3162    0.3366 H         1 UNK         0.0786 
    104 H104       26.4358   -2.4235   -0.3041 H         1 UNK         0.2977 
    105 H105       27.4122   -1.3540   -5.5702 H         1 UNK         0.3127 
    106 H106       30.1076   -0.8647   -6.3196 H         1 UNK         0.0770 
    107 H107       28.3637    0.3025   -4.0934 H         1 UNK         0.0814 
    108 H108       30.0762    0.6631   -4.2583 H         1 UNK         0.0814 
    109 H109       29.5679   -0.9847   -3.9719 H         1 UNK         0.0814 
    110 H110       27.2011    1.1632   -6.6315 H         1 UNK         0.2983 
    111 H111       28.6485    3.5709   -7.3872 H         1 UNK         0.0947 
    112 H112       26.3833    4.4413   -7.9204 H         1 UNK         0.0806 
    113 H113       26.4029    3.7084   -6.3250 H         1 UNK         0.0806 
    114 H114       25.6802    2.8494   -7.6843 H         1 UNK         0.0806 
    115 H115       26.8880    0.9702   -9.1011 H         1 UNK         0.3000 
    116 H116       27.2200    1.9590  -11.7371 H         1 UNK         0.0850 
    117 H117       26.5901   -0.3661  -12.4035 H         1 UNK         0.0810 
    118 H118       25.5457    0.2321  -11.1227 H         1 UNK         0.0810 
    119 H119       26.8265   -0.9183  -10.7504 H         1 UNK         0.0810 
    120 H120       29.2152   -0.4044   -9.8816 H         1 UNK         0.3040 
    121 H121       31.1738   -0.6737  -12.0231 H         1 UNK         0.0766 
    122 H122       31.1137   -1.6833   -9.1377 H         1 UNK         0.0812 
    123 H123       32.3053   -2.1551  -10.3417 H         1 UNK         0.0812 
    124 H124       30.6145   -2.5812  -10.5650 H         1 UNK         0.0812 
    125 H125       30.7256    1.6605   -9.5825 H         1 UNK         0.3205 
    126 H126       31.8448    3.3609   -8.7445 H         1 UNK         0.0754 
    127 H127       33.6641    4.4391  -10.0173 H         1 UNK         0.0769 
    128 H128       32.3877    3.9358  -11.1136 H         1 UNK         0.0769 
    129 H129       33.8817    3.0050  -11.0080 H         1 UNK         0.0769 
    130 H130       32.0741    1.2264   -7.3092 H         1 UNK         0.2981 
    131 H131       34.8082    0.4481   -6.6695 H         1 UNK         0.0541 
    132 H132       35.9218    0.8732   -4.6365 H         1 UNK         0.3459 
    133 H133       35.5199    2.2913   -3.7043 H         1 UNK         0.3459 
    134 H134       32.1606   -0.2009   -5.2640 H         1 UNK         0.0612 
    135 H135       33.7129   -0.8690   -4.8244 H         1 UNK         0.0612 
    136 H136       33.4250   -4.0847   -6.5255 H         1 UNK         0.0624 
    137 H137       33.6331   -3.1707   -5.0603 H         1 UNK         0.0624 
@<TRIPOS>BOND
     1    1    2 1    
     2    1   72 1    
     3    1   73 1    
     4    1   74 1    
     5    2    3 2    
     6    2    4 am   BACKBONE|DICT|INTERRES
     7    4    5 1    
     8    4   75 1    
     9    5    6 1    
    10    5   35 1    
    11    5   76 1    
    12    6    7 1    
    13    6   77 1    
    14    6   78 1    
    15    7    8 1    
    16    8    9 1    
    17    8   79 1    
    18    8   80 1    
    19    9   10 ar   
    20    9   14 ar   
    21   10   11 ar   
    22   10   81 1    
    23   11   12 ar   
    24   11   71 1    
    25   12   13 ar   
    26   12   82 1    
    27   13   14 ar   
    28   13   15 1    
    29   14   83 1    
    30   15   16 1    
    31   15   84 1    
    32   15   85 1    
    33   16   17 1    
    34   17   18 1    
    35   17   86 1    
    36   17   87 1    
    37   18   19 1    
    38   18   37 1    
    39   18   88 1    
    40   19   20 am   BACKBONE|DICT|INTERRES
    41   19   89 1    
    42   20   21 2    
    43   20   22 1    
    44   22   23 1    
    45   22   24 1    
    46   22   90 1    
    47   23   91 1    
    48   23   92 1    
    49   23   93 1    
    50   24   25 am   BACKBONE|DICT|INTERRES
    51   24   94 1    
    52   25   26 2    
    53   25   27 1    
    54   27   28 1    
    55   27   29 1    
    56   27   95 1    
    57   28   96 1    
    58   28   97 1    
    59   28   98 1    
    60   29   30 am   BACKBONE|DICT|INTERRES
    61   29   99 1    
    62   30   31 2    
    63   30   32 1    
    64   32   33 1    
    65   32   34 1    
    66   32  100 1    
    67   33  101 1    
    68   33  102 1    
    69   33  103 1    
    70   34   35 am   BACKBONE|DICT|INTERRES
    71   34  104 1    
    72   35   36 2    
    73   37   38 2    
    74   37   39 am   BACKBONE|DICT|INTERRES
    75   39   40 1    
    76   39  105 1    
    77   40   41 1    
    78   40   42 1    
    79   40  106 1    
    80   41  107 1    
    81   41  108 1    
    82   41  109 1    
    83   42   43 2    
    84   42   44 am   BACKBONE|DICT|INTERRES
    85   44   45 1    
    86   44  110 1    
    87   45   46 1    
    88   45   47 1    
    89   45  111 1    
    90   46  112 1    
    91   46  113 1    
    92   46  114 1    
    93   47   48 2    
    94   47   49 am   BACKBONE|DICT|INTERRES
    95   49   50 1    
    96   49  115 1    
    97   50   51 1    
    98   50   52 1    
    99   50  116 1    
   100   51  117 1    
   101   51  118 1    
   102   51  119 1    
   103   52   53 2    
   104   52   54 am   BACKBONE|DICT|INTERRES
   105   54   55 1    
   106   54  120 1    
   107   55   56 1    
   108   55   57 1    
   109   55  121 1    
   110   56  122 1    
   111   56  123 1    
   112   56  124 1    
   113   57   58 2    
   114   57   59 am   BACKBONE|DICT|INTERRES
   115   59   60 1    
   116   59  125 1    
   117   60   61 1    
   118   60   62 1    
   119   60  126 1    
   120   61  127 1    
   121   61  128 1    
   122   61  129 1    
   123   62   63 2    
   124   62   64 am   BACKBONE|DICT|INTERRES
   125   64   65 1    
   126   64  130 1    
   127   65   66 1    
   128   65   69 1    
   129   65  131 1    
   130   66   67 am   BACKBONE|DICT|INTERRES
   131   66   68 2    
   132   67  132 1    
   133   67  133 1    
   134   69   70 1    
   135   69  134 1    
   136   69  135 1    
   137   70   71 1    
   138   71  136 1    
   139   71  137 1    
@<TRIPOS>SUBSTRUCTURE
     1 UNK         1 GROUP             0       ****    0 ROOT    
