@<TRIPOS>MOLECULE
3R137
137   139    1
SMALL
USER_CHARGES


@<TRIPOS>ATOM
      1 CA         23.9227   -6.2861   -3.6531 C.3       0 UNK        -0.2020 
      2 C          24.5573   -5.4152   -2.5790 C.2       0 UNK         0.4855 
      3 O          23.8673   -4.9781   -1.6583 O.2       0 UNK        -0.5197 
      4 N          25.8671   -5.1635   -2.6884 N.am      1 UNK        -0.4892 
      5 CA         26.6181   -4.2490   -1.8230 C.3       1 UNK         0.0835 
      6 C6         28.1318   -4.5319   -1.9280 C.3       12 UNK        -0.0855 
      7 S7         29.1180   -3.8795   -0.5348 S.3       12 UNK        -0.2931 
      8 C8         30.7664   -4.5914   -0.8842 C.3       12 UNK         0.0378 
      9 C9         31.3361   -4.0624   -2.1933 C.ar      12 UNK        -0.0802 
     10 C10        32.1464   -2.9214   -2.2145 C.ar      12 UNK        -0.0944 
     11 C11        32.5784   -2.3863   -3.4334 C.ar      12 UNK        -0.0787 
     12 C12        32.1834   -2.9906   -4.6306 C.ar      12 UNK        -0.0862 
     13 C13        31.3377   -4.1016   -4.6161 C.ar      12 UNK        -0.0733 
     14 C14        30.9815   -4.6766   -3.3973 C.ar      12 UNK        -0.0832 
     15 C15        30.6900   -4.5959   -5.9007 C.3       12 UNK         0.0240 
     16 S16        28.9226   -4.1141   -5.9644 S.3       12 UNK        -0.2522 
     17 C17        28.9933   -2.3153   -5.6393 C.3       12 UNK        -0.0967 
     18 CA         28.0153   -1.5074   -6.5232 C.3       5 UNK         0.0660 
     19 N          26.6258   -1.6025   -6.0571 N.am      5 UNK        -0.4015 
     20 C          25.5696   -1.2224   -6.7888 C.2       4 UNK         0.4946 
     21 O          25.6600   -0.7580   -7.9267 O.2       4 UNK        -0.5353 
     22 CA         24.1811   -1.3404   -6.1334 C.3       4 UNK         0.0277 
     23 CB         23.7651   -2.8149   -5.9902 C.3       4 UNK        -0.1981 
     24 N          24.0424   -0.6580   -4.8387 N.am      4 UNK        -0.4209 
     25 C          24.3533    0.6227   -4.5867 C.2       3 UNK         0.4942 
     26 O          24.9046    1.3581   -5.4004 O.2       3 UNK        -0.5208 
     27 CA         23.9877    1.2149   -3.2125 C.3       3 UNK         0.0250 
     28 CB         22.9510    2.3377   -3.3869 C.3       3 UNK        -0.1990 
     29 N          23.4510    0.2317   -2.2674 N.am      3 UNK        -0.4232 
     30 C          24.1297   -0.5854   -1.4506 C.2       2 UNK         0.4993 
     31 O          23.5400   -1.3583   -0.6950 O.2       2 UNK        -0.5286 
     32 CA         25.6727   -0.5498   -1.4117 C.3       2 UNK         0.0209 
     33 CB         26.1673    0.3451   -0.2638 C.3       2 UNK        -0.1931 
     34 N          26.1841   -1.9060   -1.2200 N.am      2 UNK        -0.4546 
     35 C          26.2924   -2.7936   -2.2142 C.2       1 UNK         0.5154 
     36 O          26.1587   -2.4974   -3.4062 O.2       1 UNK        -0.5181 
     37 C          28.4927   -0.0463   -6.6611 C.2       5 UNK         0.5014 
     38 O          29.3085    0.2322   -7.5418 O.2       5 UNK        -0.5248 
     39 N          27.9838    0.8591   -5.8128 N.am      6 UNK        -0.4434 
     40 CA         28.2950    2.2895   -5.8584 C.3       6 UNK         0.0363 
     41 CB         27.8607    2.9679   -4.5490 C.3       6 UNK        -0.1936 
     42 C          27.6587    2.9716   -7.0797 C.2       6 UNK         0.5081 
     43 O          28.3367    3.7346   -7.7658 O.2       6 UNK        -0.5248 
     44 N          26.3909    2.6430   -7.3635 N.am      7 UNK        -0.4718 
     45 CA         25.6429    3.0850   -8.5437 C.3       7 UNK         0.0273 
     46 CB         24.1727    2.6594   -8.4045 C.3       7 UNK        -0.1935 
     47 C          26.2407    2.5571   -9.8585 C.2       7 UNK         0.5018 
     48 O          26.2674    3.2894  -10.8480 O.2       7 UNK        -0.5186 
     49 N          26.7481    1.3164   -9.8331 N.am      8 UNK        -0.4240 
     50 CA         27.5092    0.7036  -10.9258 C.3       8 UNK         0.0235 
     51 CB         27.5656   -0.8168  -10.7013 C.3       8 UNK        -0.2000 
     52 C          28.9355    1.2697  -11.0840 C.2       8 UNK         0.4941 
     53 O          29.5723    0.9867  -12.0995 O.2       8 UNK        -0.5273 
     54 N          29.4187    2.0248  -10.0834 N.am      9 UNK        -0.4262 
     55 CA         30.7704    2.5813   -9.9442 C.3       9 UNK         0.0264 
     56 CB         31.0474    3.6430  -11.0293 C.3       9 UNK        -0.1955 
     57 C          31.8649    1.4981   -9.8678 C.2       9 UNK         0.5031 
     58 O          32.9948    1.7309  -10.3033 O.2       9 UNK        -0.5390 
     59 N          31.5224    0.3346   -9.2965 N.am      10 UNK        -0.4204 
     60 CA         32.3988   -0.8341   -9.1877 C.3       10 UNK         0.0237 
     61 CB         31.5556   -2.0668   -8.8288 C.3       10 UNK        -0.1985 
     62 C          33.5484   -0.6441   -8.1842 C.2       10 UNK         0.4970 
     63 O          34.5699   -1.3200   -8.3105 O.2       10 UNK        -0.4914 
     64 N          33.3727    0.2725   -7.2236 N.am      11 UNK        -0.4285 
     65 CA         34.4040    0.6791   -6.2568 C.3       11 UNK         0.1007 
     66 C          35.4912    1.6272   -6.8452 C.2       11 UNK         0.5703 
     67 N          35.3680    2.1119   -8.0769 N.am      11 UNK        -0.7361 
     68 O          36.4748    1.9225   -6.1706 O.2       11 UNK        -0.4986 
     69 C69        33.7948    1.2652   -4.9512 C.3       12 UNK        -0.0947 
     70 S70        32.4655    0.2445   -4.2309 S.3       12 UNK        -0.2240 
     71 C71        33.4151   -1.1179   -3.4802 C.3       12 UNK         0.0194 
     72 H72        23.4852   -7.1774   -3.2041 H         1 UNK         0.0906 
     73 H73        23.1308   -5.7363   -4.1611 H         1 UNK         0.0906 
     74 H74        24.6475   -6.6044   -4.4022 H         1 UNK         0.0906 
     75 H75        26.3713   -5.5151   -3.4899 H         1 UNK         0.3140 
     76 H76        26.2969   -4.4212   -0.7930 H         1 UNK         0.1085 
     77 H77        28.3046   -5.6090   -1.9652 H         1 UNK         0.0836 
     78 H78        28.5094   -4.1250   -2.8661 H         1 UNK         0.0836 
     79 H79        31.4390   -4.3502   -0.0597 H         1 UNK         0.0731 
     80 H80        30.6969   -5.6800   -0.9130 H         1 UNK         0.0731 
     81 H81        32.4116   -2.4336   -1.2864 H         1 UNK         0.1312 
     82 H82        32.4697   -2.5415   -5.5721 H         1 UNK         0.1406 
     83 H83        30.3321   -5.5411   -3.3911 H         1 UNK         0.1631 
     84 H84        30.7693   -5.6822   -5.9602 H         1 UNK         0.0717 
     85 H85        31.2067   -4.2000   -6.7752 H         1 UNK         0.0717 
     86 H86        28.8056   -2.1363   -4.5788 H         1 UNK         0.0934 
     87 H87        30.0148   -1.9800   -5.8156 H         1 UNK         0.0934 
     88 H88        28.0504   -1.9296   -7.5297 H         1 UNK         0.0739 
     89 H89        26.4701   -1.9743   -5.1201 H         1 UNK         0.3093 
     90 H90        23.4732   -0.8614   -6.8129 H         1 UNK         0.0818 
     91 H91        22.7283   -2.9055   -5.6663 H         1 UNK         0.0819 
     92 H92        23.8510   -3.3392   -6.9431 H         1 UNK         0.0819 
     93 H93        24.3881   -3.3461   -5.2699 H         1 UNK         0.0819 
     94 H94        23.6184   -1.1946   -4.0965 H         1 UNK         0.3041 
     95 H95        24.8867    1.6741   -2.7989 H         1 UNK         0.0784 
     96 H96        23.3262    3.1198   -4.0489 H         1 UNK         0.0793 
     97 H97        22.0200    1.9669   -3.8179 H         1 UNK         0.0793 
     98 H98        22.7148    2.8120   -2.4340 H         1 UNK         0.0793 
     99 H99        22.4429    0.1751   -2.2391 H         1 UNK         0.3024 
    100 H100       26.0794   -0.1676   -2.3481 H         1 UNK         0.1171 
    101 H101       25.8268    1.3730   -0.3950 H         1 UNK         0.0786 
    102 H102       27.2565    0.3680   -0.2203 H         1 UNK         0.0786 
    103 H103       25.8002    0.0017    0.7044 H         1 UNK         0.0786 
    104 H104       26.2913   -2.2196   -0.2660 H         1 UNK         0.2977 
    105 H105       27.2705    0.5661   -5.1619 H         1 UNK         0.3127 
    106 H106       29.3789    2.3954   -5.9461 H         1 UNK         0.0770 
    107 H107       26.7825    2.9186   -4.3981 H         1 UNK         0.0814 
    108 H108       28.1377    4.0229   -4.5512 H         1 UNK         0.0814 
    109 H109       28.3431    2.5094   -3.6857 H         1 UNK         0.0814 
    110 H110       25.8888    2.0428   -6.7086 H         1 UNK         0.2983 
    111 H111       25.6852    4.1758   -8.5760 H         1 UNK         0.0947 
    112 H112       23.5856    2.9904   -9.2621 H         1 UNK         0.0806 
    113 H113       23.7188    3.0917   -7.5125 H         1 UNK         0.0806 
    114 H114       24.0724    1.5752   -8.3357 H         1 UNK         0.0806 
    115 H115       26.6050    0.7522   -9.0009 H         1 UNK         0.3000 
    116 H116       26.9779    0.8929  -11.8609 H         1 UNK         0.0850 
    117 H117       28.0677   -1.3173  -11.5303 H         1 UNK         0.0810 
    118 H118       26.5661   -1.2450  -10.6216 H         1 UNK         0.0810 
    119 H119       28.1113   -1.0678   -9.7917 H         1 UNK         0.0810 
    120 H120       28.8084    2.2019   -9.2948 H         1 UNK         0.3040 
    121 H121       30.7865    3.0883   -8.9785 H         1 UNK         0.0766 
    122 H122       31.9891    4.1595  -10.8397 H         1 UNK         0.0812 
    123 H123       30.2631    4.3995  -11.0518 H         1 UNK         0.0812 
    124 H124       31.1157    3.1991  -12.0228 H         1 UNK         0.0812 
    125 H125       30.6015    0.2596   -8.8656 H         1 UNK         0.3205 
    126 H126       32.8496   -1.0057  -10.1675 H         1 UNK         0.0754 
    127 H127       32.1747   -2.9635   -8.7796 H         1 UNK         0.0769 
    128 H128       30.7800   -2.2482   -9.5733 H         1 UNK         0.0769 
    129 H129       31.0690   -1.9489   -7.8622 H         1 UNK         0.0769 
    130 H130       32.4974    0.7719   -7.1809 H         1 UNK         0.2981 
    131 H131       34.9474   -0.2240   -5.9759 H         1 UNK         0.0541 
    132 H132       34.5767    1.8714   -8.6582 H         1 UNK         0.3459 
    133 H133       36.0864    2.7196   -8.4373 H         1 UNK         0.3459 
    134 H134       33.3760    2.2544   -5.1443 H         1 UNK         0.0612 
    135 H135       34.5689    1.4052   -4.1943 H         1 UNK         0.0612 
    136 H136       33.7406   -0.8204   -2.4824 H         1 UNK         0.0624 
    137 H137       34.3183   -1.3180   -4.0562 H         1 UNK         0.0624 
@<TRIPOS>BOND
     1    1    2 1    
     2    1   72 1    
     3    1   73 1    
     4    1   74 1    
     5    2    3 2    
     6    2    4 am   BACKBONE|DICT|INTERRES
     7    4    5 1    
     8    4   75 1    
     9    5    6 1    
    10    5   35 1    
    11    5   76 1    
    12    6    7 1    
    13    6   77 1    
    14    6   78 1    
    15    7    8 1    
    16    8    9 1    
    17    8   79 1    
    18    8   80 1    
    19    9   10 ar   
    20    9   14 ar   
    21   10   11 ar   
    22   10   81 1    
    23   11   12 ar   
    24   11   71 1    
    25   12   13 ar   
    26   12   82 1    
    27   13   14 ar   
    28   13   15 1    
    29   14   83 1    
    30   15   16 1    
    31   15   84 1    
    32   15   85 1    
    33   16   17 1    
    34   17   18 1    
    35   17   86 1    
    36   17   87 1    
    37   18   19 1    
    38   18   37 1    
    39   18   88 1    
    40   19   20 am   BACKBONE|DICT|INTERRES
    41   19   89 1    
    42   20   21 2    
    43   20   22 1    
    44   22   23 1    
    45   22   24 1    
    46   22   90 1    
    47   23   91 1    
    48   23   92 1    
    49   23   93 1    
    50   24   25 am   BACKBONE|DICT|INTERRES
    51   24   94 1    
    52   25   26 2    
    53   25   27 1    
    54   27   28 1    
    55   27   29 1    
    56   27   95 1    
    57   28   96 1    
    58   28   97 1    
    59   28   98 1    
    60   29   30 am   BACKBONE|DICT|INTERRES
    61   29   99 1    
    62   30   31 2    
    63   30   32 1    
    64   32   33 1    
    65   32   34 1    
    66   32  100 1    
    67   33  101 1    
    68   33  102 1    
    69   33  103 1    
    70   34   35 am   BACKBONE|DICT|INTERRES
    71   34  104 1    
    72   35   36 2    
    73   37   38 2    
    74   37   39 am   BACKBONE|DICT|INTERRES
    75   39   40 1    
    76   39  105 1    
    77   40   41 1    
    78   40   42 1    
    79   40  106 1    
    80   41  107 1    
    81   41  108 1    
    82   41  109 1    
    83   42   43 2    
    84   42   44 am   BACKBONE|DICT|INTERRES
    85   44   45 1    
    86   44  110 1    
    87   45   46 1    
    88   45   47 1    
    89   45  111 1    
    90   46  112 1    
    91   46  113 1    
    92   46  114 1    
    93   47   48 2    
    94   47   49 am   BACKBONE|DICT|INTERRES
    95   49   50 1    
    96   49  115 1    
    97   50   51 1    
    98   50   52 1    
    99   50  116 1    
   100   51  117 1    
   101   51  118 1    
   102   51  119 1    
   103   52   53 2    
   104   52   54 am   BACKBONE|DICT|INTERRES
   105   54   55 1    
   106   54  120 1    
   107   55   56 1    
   108   55   57 1    
   109   55  121 1    
   110   56  122 1    
   111   56  123 1    
   112   56  124 1    
   113   57   58 2    
   114   57   59 am   BACKBONE|DICT|INTERRES
   115   59   60 1    
   116   59  125 1    
   117   60   61 1    
   118   60   62 1    
   119   60  126 1    
   120   61  127 1    
   121   61  128 1    
   122   61  129 1    
   123   62   63 2    
   124   62   64 am   BACKBONE|DICT|INTERRES
   125   64   65 1    
   126   64  130 1    
   127   65   66 1    
   128   65   69 1    
   129   65  131 1    
   130   66   67 am   BACKBONE|DICT|INTERRES
   131   66   68 2    
   132   67  132 1    
   133   67  133 1    
   134   69   70 1    
   135   69  134 1    
   136   69  135 1    
   137   70   71 1    
   138   71  136 1    
   139   71  137 1    
@<TRIPOS>SUBSTRUCTURE
     1 UNK         1 GROUP             0       ****    0 ROOT    
