@<TRIPOS>MOLECULE
3R137
137   139    1
SMALL
USER_CHARGES


@<TRIPOS>ATOM
      1 CA         25.7454   -6.1611    0.1940 C.3       0 UNK        -0.2020 
      2 C          26.5653   -5.9156   -1.0690 C.2       0 UNK         0.4855 
      3 O          26.5256   -6.7352   -1.9836 O.2       0 UNK        -0.5197 
      4 N          27.3162   -4.8111   -1.1755 N.am      1 UNK        -0.4892 
      5 CA         27.4475   -3.7283   -0.1858 C.3       1 UNK         0.0835 
      6 C6         28.8556   -3.0785   -0.2055 C.3       12 UNK        -0.0855 
      7 S7         30.1845   -4.3073    0.0594 S.3       12 UNK        -0.2931 
      8 C8         31.5785   -3.5982   -0.8915 C.3       12 UNK         0.0378 
      9 C9         31.3392   -3.3967   -2.3902 C.ar      12 UNK        -0.0802 
     10 C10        32.1822   -2.5276   -3.0900 C.ar      12 UNK        -0.0944 
     11 C11        31.9935   -2.2876   -4.4541 C.ar      12 UNK        -0.0787 
     12 C12        30.9231   -2.8957   -5.1168 C.ar      12 UNK        -0.0862 
     13 C13        30.0765   -3.7755   -4.4354 C.ar      12 UNK        -0.0733 
     14 C14        30.3146   -4.0498   -3.0868 C.ar      12 UNK        -0.0832 
     15 C15        28.9063   -4.4338   -5.1509 C.3       12 UNK         0.0240 
     16 S16        27.3107   -3.7639   -4.5689 S.3       12 UNK        -0.2522 
     17 C17        26.3558   -3.7150   -6.1288 C.3       12 UNK        -0.0967 
     18 CA         26.2795   -2.3464   -6.8683 C.3       5 UNK         0.0660 
     19 N          25.1455   -1.5149   -6.4492 N.am      5 UNK        -0.4015 
     20 C          24.6271   -0.5403   -7.2152 C.2       4 UNK         0.4946 
     21 O          25.0442   -0.2626   -8.3400 O.2       4 UNK        -0.5353 
     22 CA         23.4680    0.2829   -6.6301 C.3       4 UNK         0.0277 
     23 CB         22.1436   -0.4902   -6.7377 C.3       4 UNK        -0.1981 
     24 N          23.6933    0.6852   -5.2421 N.am      4 UNK        -0.4209 
     25 C          24.6706    1.5079   -4.8335 C.2       3 UNK         0.4942 
     26 O          25.4691    2.0545   -5.5912 O.2       3 UNK        -0.5208 
     27 CA         24.8106    1.7187   -3.3157 C.3       3 UNK         0.0250 
     28 CB         23.9477    2.9032   -2.8528 C.3       3 UNK        -0.1990 
     29 N          24.4728    0.5251   -2.5326 N.am      3 UNK        -0.4232 
     30 C          25.1013   -0.6529   -2.6437 C.2       2 UNK         0.4993 
     31 O          26.0400   -0.8584   -3.4180 O.2       2 UNK        -0.5286 
     32 CA         24.5227   -1.8108   -1.8222 C.3       2 UNK         0.0209 
     33 CB         23.4587   -2.5597   -2.6427 C.3       2 UNK        -0.1931 
     34 N          25.5766   -2.7519   -1.4578 N.am      2 UNK        -0.4546 
     35 C          26.3493   -2.6576   -0.3678 C.2       1 UNK         0.5154 
     36 O          26.2111   -1.7820    0.4877 O.2       1 UNK        -0.5181 
     37 C          27.5903   -1.5336   -6.8707 C.2       5 UNK         0.5014 
     38 O          28.3967   -1.6954   -7.7876 O.2       5 UNK        -0.5248 
     39 N          27.7544   -0.6427   -5.8803 N.am      6 UNK        -0.4434 
     40 CA         28.8750    0.2920   -5.7936 C.3       6 UNK         0.0363 
     41 CB         28.8422    1.0268   -4.4459 C.3       6 UNK        -0.1936 
     42 C          28.9111    1.2821   -6.9687 C.2       6 UNK         0.5081 
     43 O          29.9804    1.5045   -7.5355 O.2       6 UNK        -0.5248 
     44 N          27.7418    1.8183   -7.3481 N.am      7 UNK        -0.4718 
     45 CA         27.5608    2.6757   -8.5212 C.3       7 UNK         0.0273 
     46 CB         26.1554    3.2967   -8.5050 C.3       7 UNK        -0.1935 
     47 C          27.8114    1.9380   -9.8459 C.2       7 UNK         0.5018 
     48 O          28.4415    2.5118  -10.7336 O.2       7 UNK        -0.5186 
     49 N          27.3491    0.6822   -9.9505 N.am      8 UNK        -0.4240 
     50 CA         27.5869   -0.1930  -11.1041 C.3       8 UNK         0.0235 
     51 CB         26.7269   -1.4615  -10.9901 C.3       8 UNK        -0.2000 
     52 C          29.0721   -0.5532  -11.2824 C.2       8 UNK         0.4941 
     53 O          29.5673   -0.5308  -12.4098 O.2       8 UNK        -0.5273 
     54 N          29.7614   -0.8452  -10.1701 N.am      9 UNK        -0.4262 
     55 CA         31.2110   -1.0616  -10.1217 C.3       9 UNK         0.0264 
     56 CB         31.5708   -1.7206   -8.7821 C.3       9 UNK        -0.1955 
     57 C          32.0290    0.2307  -10.3104 C.2       9 UNK         0.5031 
     58 O          33.1988    0.1485  -10.6873 O.2       9 UNK        -0.5390 
     59 N          31.4040    1.3830  -10.0304 N.am      10 UNK        -0.4204 
     60 CA         31.9502    2.7423  -10.0314 C.3       10 UNK         0.0237 
     61 CB         32.3951    3.1652  -11.4480 C.3       10 UNK        -0.1985 
     62 C          33.0370    2.9469   -8.9586 C.2       10 UNK         0.4970 
     63 O          34.0063    3.6687   -9.2034 O.2       10 UNK        -0.4914 
     64 N          32.8563    2.3144   -7.7916 N.am      11 UNK        -0.4285 
     65 CA         33.7320    2.4634   -6.6212 C.3       11 UNK         0.1007 
     66 C          33.2652    3.6018   -5.6701 C.2       11 UNK         0.5703 
     67 N          34.0794    3.9572   -4.6848 N.am      11 UNK        -0.7361 
     68 O          32.1835    4.1709   -5.8105 O.2       11 UNK        -0.4986 
     69 C69        33.9720    1.1088   -5.9012 C.3       12 UNK        -0.0947 
     70 S70        32.4905    0.3505   -5.1555 S.3       12 UNK        -0.2240 
     71 C71        32.9710   -1.4003   -5.2103 C.3       12 UNK         0.0194 
     72 H72        25.1078   -7.0364    0.0705 H         1 UNK         0.0906 
     73 H73        26.3986   -6.3444    1.0467 H         1 UNK         0.0906 
     74 H74        25.0990   -5.3132    0.4178 H         1 UNK         0.0906 
     75 H75        27.8172   -4.6619   -2.0389 H         1 UNK         0.3140 
     76 H76        27.3091   -4.1388    0.8158 H         1 UNK         0.1085 
     77 H77        29.0155   -2.5468   -1.1449 H         1 UNK         0.0836 
     78 H78        28.9401   -2.3261    0.5813 H         1 UNK         0.0836 
     79 H79        31.8432   -2.6425   -0.4359 H         1 UNK         0.0731 
     80 H80        32.4446   -4.2493   -0.7664 H         1 UNK         0.0731 
     81 H81        32.9966   -2.0385   -2.5725 H         1 UNK         0.1312 
     82 H82        30.7544   -2.6929   -6.1649 H         1 UNK         0.1406 
     83 H83        29.6784   -4.7578   -2.5793 H         1 UNK         0.1631 
     84 H84        28.9263   -5.5115   -4.9828 H         1 UNK         0.0717 
     85 H85        29.0059   -4.2888   -6.2277 H         1 UNK         0.0717 
     86 H86        26.7744   -4.4608   -6.8065 H         1 UNK         0.0934 
     87 H87        25.3490   -4.0782   -5.9166 H         1 UNK         0.0934 
     88 H88        26.0894   -2.5973   -7.9143 H         1 UNK         0.0739 
     89 H89        24.8085   -1.6430   -5.5066 H         1 UNK         0.3093 
     90 H90        23.3791    1.1931   -7.2273 H         1 UNK         0.0818 
     91 H91        21.3002    0.1217   -6.4170 H         1 UNK         0.0819 
     92 H92        21.9500   -0.7883   -7.7692 H         1 UNK         0.0819 
     93 H93        22.1500   -1.3974   -6.1322 H         1 UNK         0.0819 
     94 H94        23.0770    0.2943   -4.5453 H         1 UNK         0.3041 
     95 H95        25.8562    1.9591   -3.1135 H         1 UNK         0.0784 
     96 H96        24.1975    3.8075   -3.4100 H         1 UNK         0.0793 
     97 H97        22.8838    2.7131   -3.0007 H         1 UNK         0.0793 
     98 H98        24.1072    3.1223   -1.7969 H         1 UNK         0.0793 
     99 H99        23.7032    0.6127   -1.8840 H         1 UNK         0.3024 
    100 H100       24.0591   -1.4138   -0.9158 H         1 UNK         0.1171 
    101 H101       22.6383   -1.8981   -2.9238 H         1 UNK         0.0786 
    102 H102       23.0267   -3.3814   -2.0711 H         1 UNK         0.0786 
    103 H103       23.8744   -2.9764   -3.5613 H         1 UNK         0.0786 
    104 H104       25.8083   -3.4574   -2.1428 H         1 UNK         0.2977 
    105 H105       27.0780   -0.6244   -5.1216 H         1 UNK         0.3127 
    106 H106       29.7876   -0.3022   -5.8371 H         1 UNK         0.0770 
    107 H107       27.9411    1.6295   -4.3367 H         1 UNK         0.0814 
    108 H108       29.6981    1.6961   -4.3489 H         1 UNK         0.0814 
    109 H109       28.8816    0.3243   -3.6130 H         1 UNK         0.0814 
    110 H110       26.9142    1.6423   -6.7833 H         1 UNK         0.2983 
    111 H111       28.2906    3.4856   -8.4539 H         1 UNK         0.0947 
    112 H112       26.0021    3.9425   -9.3706 H         1 UNK         0.0806 
    113 H113       26.0036    3.9072   -7.6147 H         1 UNK         0.0806 
    114 H114       25.3765    2.5336   -8.5227 H         1 UNK         0.0806 
    115 H115       26.7770    0.3075   -9.1992 H         1 UNK         0.3000 
    116 H116       27.2705    0.3495  -11.9976 H         1 UNK         0.0850 
    117 H117       26.8561   -2.0992  -11.8655 H         1 UNK         0.0810 
    118 H118       25.6667   -1.2174  -10.9201 H         1 UNK         0.0810 
    119 H119       26.9931   -2.0532  -10.1146 H         1 UNK         0.0810 
    120 H120       29.2570   -0.9302   -9.2891 H         1 UNK         0.3040 
    121 H121       31.4831   -1.7466  -10.9274 H         1 UNK         0.0766 
    122 H122       32.6406   -1.9245   -8.7210 H         1 UNK         0.0812 
    123 H123       31.0502   -2.6699   -8.6551 H         1 UNK         0.0812 
    124 H124       31.3088   -1.0773   -7.9408 H         1 UNK         0.0812 
    125 H125       30.4685    1.3090   -9.6488 H         1 UNK         0.3205 
    126 H126       31.1227    3.3920   -9.7424 H         1 UNK         0.0754 
    127 H127       32.6616    4.2224  -11.4748 H         1 UNK         0.0769 
    128 H128       31.5950    3.0153  -12.1732 H         1 UNK         0.0769 
    129 H129       33.2654    2.6020  -11.7860 H         1 UNK         0.0769 
    130 H130       31.9794    1.8275   -7.6325 H         1 UNK         0.2981 
    131 H131       34.7125    2.7823   -6.9795 H         1 UNK         0.0541 
    132 H132       34.9699    3.5040   -4.5533 H         1 UNK         0.3459 
    133 H133       33.7947    4.6932   -4.0577 H         1 UNK         0.3459 
    134 H134       34.7231    1.2210   -5.1179 H         1 UNK         0.0612 
    135 H135       34.4003    0.4042   -6.6160 H         1 UNK         0.0612 
    136 H136       33.0477   -1.7234   -6.2485 H         1 UNK         0.0624 
    137 H137       33.9693   -1.5092   -4.7834 H         1 UNK         0.0624 
@<TRIPOS>BOND
     1    1    2 1    
     2    1   72 1    
     3    1   73 1    
     4    1   74 1    
     5    2    3 2    
     6    2    4 am   BACKBONE|DICT|INTERRES
     7    4    5 1    
     8    4   75 1    
     9    5    6 1    
    10    5   35 1    
    11    5   76 1    
    12    6    7 1    
    13    6   77 1    
    14    6   78 1    
    15    7    8 1    
    16    8    9 1    
    17    8   79 1    
    18    8   80 1    
    19    9   10 ar   
    20    9   14 ar   
    21   10   11 ar   
    22   10   81 1    
    23   11   12 ar   
    24   11   71 1    
    25   12   13 ar   
    26   12   82 1    
    27   13   14 ar   
    28   13   15 1    
    29   14   83 1    
    30   15   16 1    
    31   15   84 1    
    32   15   85 1    
    33   16   17 1    
    34   17   18 1    
    35   17   86 1    
    36   17   87 1    
    37   18   19 1    
    38   18   37 1    
    39   18   88 1    
    40   19   20 am   BACKBONE|DICT|INTERRES
    41   19   89 1    
    42   20   21 2    
    43   20   22 1    
    44   22   23 1    
    45   22   24 1    
    46   22   90 1    
    47   23   91 1    
    48   23   92 1    
    49   23   93 1    
    50   24   25 am   BACKBONE|DICT|INTERRES
    51   24   94 1    
    52   25   26 2    
    53   25   27 1    
    54   27   28 1    
    55   27   29 1    
    56   27   95 1    
    57   28   96 1    
    58   28   97 1    
    59   28   98 1    
    60   29   30 am   BACKBONE|DICT|INTERRES
    61   29   99 1    
    62   30   31 2    
    63   30   32 1    
    64   32   33 1    
    65   32   34 1    
    66   32  100 1    
    67   33  101 1    
    68   33  102 1    
    69   33  103 1    
    70   34   35 am   BACKBONE|DICT|INTERRES
    71   34  104 1    
    72   35   36 2    
    73   37   38 2    
    74   37   39 am   BACKBONE|DICT|INTERRES
    75   39   40 1    
    76   39  105 1    
    77   40   41 1    
    78   40   42 1    
    79   40  106 1    
    80   41  107 1    
    81   41  108 1    
    82   41  109 1    
    83   42   43 2    
    84   42   44 am   BACKBONE|DICT|INTERRES
    85   44   45 1    
    86   44  110 1    
    87   45   46 1    
    88   45   47 1    
    89   45  111 1    
    90   46  112 1    
    91   46  113 1    
    92   46  114 1    
    93   47   48 2    
    94   47   49 am   BACKBONE|DICT|INTERRES
    95   49   50 1    
    96   49  115 1    
    97   50   51 1    
    98   50   52 1    
    99   50  116 1    
   100   51  117 1    
   101   51  118 1    
   102   51  119 1    
   103   52   53 2    
   104   52   54 am   BACKBONE|DICT|INTERRES
   105   54   55 1    
   106   54  120 1    
   107   55   56 1    
   108   55   57 1    
   109   55  121 1    
   110   56  122 1    
   111   56  123 1    
   112   56  124 1    
   113   57   58 2    
   114   57   59 am   BACKBONE|DICT|INTERRES
   115   59   60 1    
   116   59  125 1    
   117   60   61 1    
   118   60   62 1    
   119   60  126 1    
   120   61  127 1    
   121   61  128 1    
   122   61  129 1    
   123   62   63 2    
   124   62   64 am   BACKBONE|DICT|INTERRES
   125   64   65 1    
   126   64  130 1    
   127   65   66 1    
   128   65   69 1    
   129   65  131 1    
   130   66   67 am   BACKBONE|DICT|INTERRES
   131   66   68 2    
   132   67  132 1    
   133   67  133 1    
   134   69   70 1    
   135   69  134 1    
   136   69  135 1    
   137   70   71 1    
   138   71  136 1    
   139   71  137 1    
@<TRIPOS>SUBSTRUCTURE
     1 UNK         1 GROUP             0       ****    0 ROOT    
