@<TRIPOS>MOLECULE
3R137
137   139    1
SMALL
USER_CHARGES


@<TRIPOS>ATOM
      1 CA         29.5910    1.1438   -2.6752 C.3       0 UNK        -0.2020 
      2 C          28.5773    1.1325   -1.5382 C.2       0 UNK         0.4855 
      3 O          28.1483    2.1975   -1.0989 O.2       0 UNK        -0.5197 
      4 N          28.1689   -0.0308   -1.0220 N.am      1 UNK        -0.4892 
      5 CA         28.5205   -1.3838   -1.4497 C.3       1 UNK         0.0835 
      6 C6         29.7457   -1.9250   -0.6655 C.3       12 UNK        -0.0855 
      7 S7         30.3048   -3.5758   -1.2161 S.3       12 UNK        -0.2931 
      8 C8         31.8267   -3.1900   -2.1462 C.3       12 UNK         0.0378 
      9 C9         31.5617   -2.3251   -3.3718 C.ar      12 UNK        -0.0802 
     10 C10        32.2716   -1.1366   -3.5633 C.ar      12 UNK        -0.0944 
     11 C11        32.0177   -0.3299   -4.6772 C.ar      12 UNK        -0.0787 
     12 C12        31.0298   -0.7081   -5.5929 C.ar      12 UNK        -0.0862 
     13 C13        30.3293   -1.9049   -5.4229 C.ar      12 UNK        -0.0733 
     14 C14        30.6151   -2.7173   -4.3222 C.ar      12 UNK        -0.0832 
     15 C15        29.2815   -2.3384   -6.4374 C.3       12 UNK         0.0240 
     16 S16        27.6542   -2.5950   -5.6619 S.3       12 UNK        -0.2522 
     17 C17        27.0724   -0.8815   -5.4202 C.3       12 UNK        -0.0967 
     18 CA         25.8602   -0.5533   -6.3303 C.3       5 UNK         0.0660 
     19 N          24.7459   -1.4866   -6.1334 N.am      5 UNK        -0.4015 
     20 C          23.8495   -1.8240   -7.0720 C.2       4 UNK         0.4946 
     21 O          23.8288   -1.3113   -8.1931 O.2       4 UNK        -0.5353 
     22 CA         22.8111   -2.9134   -6.7393 C.3       4 UNK         0.0277 
     23 CB         23.1708   -4.2242   -7.4587 C.3       4 UNK        -0.1981 
     24 N          22.6777   -3.1840   -5.3070 N.am      4 UNK        -0.4209 
     25 C          21.9941   -2.4203   -4.4439 C.2       3 UNK         0.4942 
     26 O          21.3332   -1.4360   -4.7766 O.2       3 UNK        -0.5208 
     27 CA         22.0772   -2.8048   -2.9520 C.3       3 UNK         0.0250 
     28 CB         20.8626   -3.6579   -2.5510 C.3       3 UNK        -0.1990 
     29 N          23.3113   -3.5037   -2.5598 N.am      3 UNK        -0.4232 
     30 C          24.5500   -3.0167   -2.7182 C.2       2 UNK         0.4993 
     31 O          24.7850   -1.9413   -3.2725 O.2       2 UNK        -0.5286 
     32 CA         25.7135   -3.9007   -2.2333 C.3       2 UNK         0.0209 
     33 CB         25.9101   -5.1019   -3.1745 C.3       2 UNK        -0.1931 
     34 N          26.9658   -3.1421   -2.1747 N.am      2 UNK        -0.4546 
     35 C          27.2509   -2.2289   -1.2382 C.2       1 UNK         0.5154 
     36 O          26.5505   -2.0287   -0.2401 O.2       1 UNK        -0.5181 
     37 C          25.3666    0.8971   -6.1656 C.2       5 UNK         0.5014 
     38 O          25.7576    1.5882   -5.2231 O.2       5 UNK        -0.5248 
     39 N          24.4967    1.3265   -7.0904 N.am      6 UNK        -0.4434 
     40 CA         23.9291    2.6774   -7.1643 C.3       6 UNK         0.0363 
     41 CB         22.7652    2.6764   -8.1685 C.3       6 UNK        -0.1936 
     42 C          24.9609    3.7610   -7.5336 C.2       6 UNK         0.5081 
     43 O          24.7224    4.9387   -7.2639 O.2       6 UNK        -0.5248 
     44 N          26.0829    3.3474   -8.1307 N.am      7 UNK        -0.4718 
     45 CA         27.2625    4.1585   -8.4029 C.3       7 UNK         0.0273 
     46 CB         27.3173    4.4890   -9.9041 C.3       7 UNK        -0.1935 
     47 C          28.4954    3.3536   -7.9758 C.2       7 UNK         0.5018 
     48 O          28.4385    2.1199   -7.9325 O.2       7 UNK        -0.5186 
     49 N          29.5955    4.0600   -7.6920 N.am      8 UNK        -0.4240 
     50 CA         30.8875    3.4761   -7.3322 C.3       8 UNK         0.0235 
     51 CB         31.6992    4.5023   -6.5199 C.3       8 UNK        -0.2000 
     52 C          31.6337    2.9918   -8.5879 C.2       8 UNK         0.4941 
     53 O          32.5786    3.6434   -9.0375 O.2       8 UNK        -0.5273 
     54 N          31.1719    1.8680   -9.1409 N.am      9 UNK        -0.4262 
     55 CA         31.7736    1.1538  -10.2608 C.3       9 UNK         0.0264 
     56 CB         30.9303    1.3886  -11.5252 C.3       9 UNK        -0.1955 
     57 C          31.8213   -0.3347   -9.9016 C.2       9 UNK         0.5031 
     58 O          30.9515   -0.8045   -9.1640 O.2       9 UNK        -0.5390 
     59 N          32.8298   -1.0410  -10.4344 N.am      10 UNK        -0.4204 
     60 CA         33.1319   -2.4620  -10.1970 C.3       10 UNK         0.0237 
     61 CB         32.0397   -3.3650  -10.8116 C.3       10 UNK        -0.1985 
     62 C          33.4128   -2.7831   -8.7125 C.2       10 UNK         0.4970 
     63 O          33.0166   -3.8434   -8.2245 O.2       10 UNK        -0.4914 
     64 N          34.0820   -1.8484   -8.0255 N.am      11 UNK        -0.4285 
     65 CA         34.4149   -1.9177   -6.5970 C.3       11 UNK         0.1007 
     66 C          35.4102   -3.0587   -6.2550 C.2       11 UNK         0.5703 
     67 N          35.2903   -3.6514   -5.0746 N.am      11 UNK        -0.7361 
     68 O          36.3124   -3.3791   -7.0274 O.2       11 UNK        -0.4986 
     69 C69        34.9373   -0.5551   -6.0630 C.3       12 UNK        -0.0947 
     70 S70        33.8226    0.8475   -6.4230 S.3       12 UNK        -0.2240 
     71 C71        32.8259    0.9393   -4.9010 C.3       12 UNK         0.0194 
     72 H72        29.1926    0.6534   -3.5626 H         1 UNK         0.0906 
     73 H73        29.8505    2.1658   -2.9504 H         1 UNK         0.0906 
     74 H74        30.5065    0.6410   -2.3706 H         1 UNK         0.0906 
     75 H75        27.4579   -0.0268   -0.2997 H         1 UNK         0.3140 
     76 H76        28.7470   -1.3843   -2.5172 H         1 UNK         0.1085 
     77 H77        29.5183   -1.9809    0.4008 H         1 UNK         0.0836 
     78 H78        30.5795   -1.2267   -0.7495 H         1 UNK         0.0836 
     79 H79        32.5396   -2.7099   -1.4738 H         1 UNK         0.0731 
     80 H80        32.2882   -4.1242   -2.4687 H         1 UNK         0.0731 
     81 H81        33.0247   -0.8390   -2.8463 H         1 UNK         0.1312 
     82 H82        30.8324   -0.0872   -6.4562 H         1 UNK         0.1406 
     83 H83        30.0803   -3.6484   -4.1924 H         1 UNK         0.1631 
     84 H84        29.6065   -3.2716   -6.8993 H         1 UNK         0.0717 
     85 H85        29.1859   -1.6123   -7.2462 H         1 UNK         0.0717 
     86 H86        26.8178   -0.7488   -4.3676 H         1 UNK         0.0934 
     87 H87        27.8913   -0.1875   -5.6198 H         1 UNK         0.0934 
     88 H88        26.2112   -0.6471   -7.3608 H         1 UNK         0.0739 
     89 H89        24.6674   -1.8693   -5.1953 H         1 UNK         0.3093 
     90 H90        21.8469   -2.5696   -7.1204 H         1 UNK         0.0818 
     91 H91        22.4129   -4.9901   -7.2927 H         1 UNK         0.0819 
     92 H92        23.2422   -4.0711   -8.5366 H         1 UNK         0.0819 
     93 H93        24.1302   -4.6200   -7.1225 H         1 UNK         0.0819 
     94 H94        23.1829   -3.9788   -4.9436 H         1 UNK         0.3041 
     95 H95        22.0414   -1.8733   -2.3830 H         1 UNK         0.0784 
     96 H96        19.9293   -3.1531   -2.8054 H         1 UNK         0.0793 
     97 H97        20.8603   -4.6224   -3.0605 H         1 UNK         0.0793 
     98 H98        20.8437   -3.8438   -1.4769 H         1 UNK         0.0793 
     99 H99        23.1949   -4.4017   -2.1115 H         1 UNK         0.3024 
    100 H100       25.4766   -4.2649   -1.2308 H         1 UNK         0.1171 
    101 H101       25.0269   -5.7416   -3.1912 H         1 UNK         0.0786 
    102 H102       26.7473   -5.7225   -2.8540 H         1 UNK         0.0786 
    103 H103       26.1025   -4.7863   -4.2007 H         1 UNK         0.0786 
    104 H104       27.5718   -3.2231   -2.9785 H         1 UNK         0.2977 
    105 H105       24.1956    0.6567   -7.7924 H         1 UNK         0.3127 
    106 H106       23.5326    2.9290   -6.1784 H         1 UNK         0.0770 
    107 H107       23.0999    2.4167   -9.1736 H         1 UNK         0.0814 
    108 H108       22.2973    3.6604   -8.2247 H         1 UNK         0.0814 
    109 H109       21.9901    1.9669   -7.8778 H         1 UNK         0.0814 
    110 H110       26.2279    2.3529   -8.2474 H         1 UNK         0.2983 
    111 H111       27.2307    5.0828   -7.8212 H         1 UNK         0.0947 
    112 H112       28.1876    5.1025  -10.1406 H         1 UNK         0.0806 
    113 H113       26.4341    5.0454  -10.2182 H         1 UNK         0.0806 
    114 H114       27.3784    3.5863  -10.5137 H         1 UNK         0.0806 
    115 H115       29.5698    5.0650   -7.7901 H         1 UNK         0.3000 
    116 H116       30.7180    2.6074   -6.6923 H         1 UNK         0.0850 
    117 H117       32.6730    4.0954   -6.2434 H         1 UNK         0.0810 
    118 H118       31.1870    4.7704   -5.5957 H         1 UNK         0.0810 
    119 H119       31.8774    5.4188   -7.0838 H         1 UNK         0.0810 
    120 H120       30.3831    1.3967   -8.7090 H         1 UNK         0.3040 
    121 H121       32.7932    1.5068  -10.4308 H         1 UNK         0.0766 
    122 H122       31.3529    0.8634  -12.3826 H         1 UNK         0.0812 
    123 H123       30.8887    2.4476  -11.7807 H         1 UNK         0.0812 
    124 H124       29.9060    1.0356  -11.3965 H         1 UNK         0.0812 
    125 H125       33.4810   -0.5559  -11.0372 H         1 UNK         0.3205 
    126 H126       34.0625   -2.6695  -10.7274 H         1 UNK         0.0754 
    127 H127       32.3256   -4.4163  -10.7596 H         1 UNK         0.0769 
    128 H128       31.8733   -3.1277  -11.8623 H         1 UNK         0.0769 
    129 H129       31.0879   -3.2615  -10.2894 H         1 UNK         0.0769 
    130 H130       34.3749   -1.0100   -8.5020 H         1 UNK         0.2981 
    131 H131       33.4827   -2.1510   -6.0822 H         1 UNK         0.0541 
    132 H132       34.5594   -3.3874   -4.4331 H         1 UNK         0.3459 
    133 H133       35.9367   -4.3837   -4.8260 H         1 UNK         0.3459 
    134 H134       35.9078   -0.3243   -6.5059 H         1 UNK         0.0612 
    135 H135       35.1021   -0.6042   -4.9851 H         1 UNK         0.0612 
    136 H136       33.4864    1.1393   -4.0560 H         1 UNK         0.0624 
    137 H137       32.1470    1.7893   -4.9657 H         1 UNK         0.0624 
@<TRIPOS>BOND
     1    1    2 1    
     2    1   72 1    
     3    1   73 1    
     4    1   74 1    
     5    2    3 2    
     6    2    4 am   BACKBONE|DICT|INTERRES
     7    4    5 1    
     8    4   75 1    
     9    5    6 1    
    10    5   35 1    
    11    5   76 1    
    12    6    7 1    
    13    6   77 1    
    14    6   78 1    
    15    7    8 1    
    16    8    9 1    
    17    8   79 1    
    18    8   80 1    
    19    9   10 ar   
    20    9   14 ar   
    21   10   11 ar   
    22   10   81 1    
    23   11   12 ar   
    24   11   71 1    
    25   12   13 ar   
    26   12   82 1    
    27   13   14 ar   
    28   13   15 1    
    29   14   83 1    
    30   15   16 1    
    31   15   84 1    
    32   15   85 1    
    33   16   17 1    
    34   17   18 1    
    35   17   86 1    
    36   17   87 1    
    37   18   19 1    
    38   18   37 1    
    39   18   88 1    
    40   19   20 am   BACKBONE|DICT|INTERRES
    41   19   89 1    
    42   20   21 2    
    43   20   22 1    
    44   22   23 1    
    45   22   24 1    
    46   22   90 1    
    47   23   91 1    
    48   23   92 1    
    49   23   93 1    
    50   24   25 am   BACKBONE|DICT|INTERRES
    51   24   94 1    
    52   25   26 2    
    53   25   27 1    
    54   27   28 1    
    55   27   29 1    
    56   27   95 1    
    57   28   96 1    
    58   28   97 1    
    59   28   98 1    
    60   29   30 am   BACKBONE|DICT|INTERRES
    61   29   99 1    
    62   30   31 2    
    63   30   32 1    
    64   32   33 1    
    65   32   34 1    
    66   32  100 1    
    67   33  101 1    
    68   33  102 1    
    69   33  103 1    
    70   34   35 am   BACKBONE|DICT|INTERRES
    71   34  104 1    
    72   35   36 2    
    73   37   38 2    
    74   37   39 am   BACKBONE|DICT|INTERRES
    75   39   40 1    
    76   39  105 1    
    77   40   41 1    
    78   40   42 1    
    79   40  106 1    
    80   41  107 1    
    81   41  108 1    
    82   41  109 1    
    83   42   43 2    
    84   42   44 am   BACKBONE|DICT|INTERRES
    85   44   45 1    
    86   44  110 1    
    87   45   46 1    
    88   45   47 1    
    89   45  111 1    
    90   46  112 1    
    91   46  113 1    
    92   46  114 1    
    93   47   48 2    
    94   47   49 am   BACKBONE|DICT|INTERRES
    95   49   50 1    
    96   49  115 1    
    97   50   51 1    
    98   50   52 1    
    99   50  116 1    
   100   51  117 1    
   101   51  118 1    
   102   51  119 1    
   103   52   53 2    
   104   52   54 am   BACKBONE|DICT|INTERRES
   105   54   55 1    
   106   54  120 1    
   107   55   56 1    
   108   55   57 1    
   109   55  121 1    
   110   56  122 1    
   111   56  123 1    
   112   56  124 1    
   113   57   58 2    
   114   57   59 am   BACKBONE|DICT|INTERRES
   115   59   60 1    
   116   59  125 1    
   117   60   61 1    
   118   60   62 1    
   119   60  126 1    
   120   61  127 1    
   121   61  128 1    
   122   61  129 1    
   123   62   63 2    
   124   62   64 am   BACKBONE|DICT|INTERRES
   125   64   65 1    
   126   64  130 1    
   127   65   66 1    
   128   65   69 1    
   129   65  131 1    
   130   66   67 am   BACKBONE|DICT|INTERRES
   131   66   68 2    
   132   67  132 1    
   133   67  133 1    
   134   69   70 1    
   135   69  134 1    
   136   69  135 1    
   137   70   71 1    
   138   71  136 1    
   139   71  137 1    
@<TRIPOS>SUBSTRUCTURE
     1 UNK         1 GROUP             0       ****    0 ROOT    
