@<TRIPOS>MOLECULE
3R137
137   139    1
SMALL
USER_CHARGES


@<TRIPOS>ATOM
      1 CA         25.7760   -6.1135   -5.9578 C.3       0 UNK        -0.2020 
      2 C          25.5771   -5.6703   -4.5169 C.2       0 UNK         0.4855 
      3 O          24.4692   -5.2865   -4.1412 O.2       0 UNK        -0.5197 
      4 N          26.6407   -5.7053   -3.7028 N.am      1 UNK        -0.4892 
      5 CA         26.6301   -5.2636   -2.3026 C.3       1 UNK         0.0835 
      6 C6         27.8704   -5.8123   -1.5199 C.3       12 UNK        -0.0855 
      7 S7         29.0284   -4.6266   -0.7520 S.3       12 UNK        -0.2931 
      8 C8         30.0748   -4.2050   -2.1910 C.3       12 UNK         0.0378 
      9 C9         30.6338   -2.7808   -2.2001 C.ar      12 UNK        -0.0802 
     10 C10        31.6118   -2.4554   -3.1449 C.ar      12 UNK        -0.0944 
     11 C11        32.1336   -1.1605   -3.2196 C.ar      12 UNK        -0.0787 
     12 C12        31.6738   -0.1781   -2.3383 C.ar      12 UNK        -0.0862 
     13 C13        30.6861   -0.4818   -1.3986 C.ar      12 UNK        -0.0733 
     14 C14        30.1767   -1.7811   -1.3313 C.ar      12 UNK        -0.0832 
     15 C15        30.1492    0.5917   -0.4618 C.3       12 UNK         0.0240 
     16 S16        29.1009    1.8125   -1.3193 S.3       12 UNK        -0.2522 
     17 C17        27.8905    0.7689   -2.2043 C.3       12 UNK        -0.0967 
     18 CA         28.0987    0.8467   -3.7407 C.3       5 UNK         0.0660 
     19 N          27.7577   -0.4089   -4.4180 N.am      5 UNK        -0.4015 
     20 C          27.9288   -0.6412   -5.7291 C.2       4 UNK         0.4946 
     21 O          28.4684    0.1446   -6.5080 O.2       4 UNK        -0.5353 
     22 CA         27.3254   -1.9400   -6.2833 C.3       4 UNK         0.0277 
     23 CB         28.2838   -3.1261   -6.0887 C.3       4 UNK        -0.1981 
     24 N          26.0182   -2.2190   -5.6818 N.am      4 UNK        -0.4209 
     25 C          24.9118   -1.5075   -5.9520 C.2       3 UNK         0.4942 
     26 O          24.8686   -0.6133   -6.7950 O.2       3 UNK        -0.5208 
     27 CA         23.6540   -1.7974   -5.1165 C.3       3 UNK         0.0250 
     28 CB         22.7831   -2.8663   -5.7945 C.3       3 UNK        -0.1990 
     29 N          23.9679   -2.1910   -3.7404 N.am      3 UNK        -0.4232 
     30 C          24.4716   -1.3473   -2.8248 C.2       2 UNK         0.4993 
     31 O          24.6790   -0.1541   -3.0448 O.2       2 UNK        -0.5286 
     32 CA         24.8675   -1.9307   -1.4545 C.3       2 UNK         0.0209 
     33 CB         23.6955   -1.8238   -0.4667 C.3       2 UNK        -0.1931 
     34 N          25.3373   -3.3199   -1.5106 N.am      2 UNK        -0.4546 
     35 C          26.3768   -3.7365   -2.2471 C.2       1 UNK         0.5154 
     36 O          27.0650   -2.9718   -2.9300 O.2       1 UNK        -0.5181 
     37 C          27.3452    2.0520   -4.3450 C.2       5 UNK         0.5014 
     38 O          27.9660    3.0758   -4.6343 O.2       5 UNK        -0.5248 
     39 N          26.0270    1.8947   -4.5444 N.am      6 UNK        -0.4434 
     40 CA         25.1498    2.8871   -5.1692 C.3       6 UNK         0.0363 
     41 CB         23.6850    2.4461   -5.0229 C.3       6 UNK        -0.1936 
     42 C          25.4902    3.1567   -6.6452 C.2       6 UNK         0.5081 
     43 O          25.4620    4.3147   -7.0637 O.2       6 UNK        -0.5248 
     44 N          25.8081    2.0979   -7.4053 N.am      7 UNK        -0.4718 
     45 CA         26.2370    2.1847   -8.8045 C.3       7 UNK         0.0273 
     46 CB         26.2482    0.7824   -9.4342 C.3       7 UNK        -0.1935 
     47 C          27.6108    2.8532   -8.9713 C.2       7 UNK         0.5018 
     48 O          27.8100    3.5778   -9.9474 O.2       7 UNK        -0.5186 
     49 N          28.5323    2.5813   -8.0349 N.am      8 UNK        -0.4240 
     50 CA         29.9091    3.0809   -7.9107 C.3       8 UNK         0.0235 
     51 CB         29.9496    4.6148   -7.7752 C.3       8 UNK        -0.2000 
     52 C          30.8645    2.5880   -9.0105 C.2       8 UNK         0.4941 
     53 O          31.9653    2.1416   -8.6923 O.2       8 UNK        -0.5273 
     54 N          30.4271    2.6211  -10.2765 N.am      9 UNK        -0.4262 
     55 CA         31.1471    2.0952  -11.4429 C.3       9 UNK         0.0264 
     56 CB         30.3618    2.4346  -12.7194 C.3       9 UNK        -0.1955 
     57 C          31.4162    0.5810  -11.3604 C.2       9 UNK         0.5031 
     58 O          32.4180    0.1100  -11.9008 O.2       9 UNK        -0.5390 
     59 N          30.5470   -0.1413  -10.6386 N.am      10 UNK        -0.4204 
     60 CA         30.6772   -1.5603  -10.3010 C.3       10 UNK         0.0237 
     61 CB         29.4056   -2.0096   -9.5637 C.3       10 UNK        -0.1985 
     62 C          31.9279   -1.8957   -9.4642 C.2       10 UNK         0.4970 
     63 O          32.3701   -3.0447   -9.4956 O.2       10 UNK        -0.4914 
     64 N          32.4810   -0.9055   -8.7501 N.am      11 UNK        -0.4285 
     65 CA         33.7420   -1.0195   -8.0029 C.3       11 UNK         0.1007 
     66 C          35.0133   -0.9762   -8.9020 C.2       11 UNK         0.5703 
     67 N          34.9181   -0.6770  -10.1940 N.am      11 UNK        -0.7361 
     68 O          36.1129   -1.2326   -8.4170 O.2       11 UNK        -0.4986 
     69 C69        33.8314    0.0262   -6.8597 C.3       12 UNK        -0.0947 
     70 S70        32.4090   -0.0535   -5.7197 S.3       12 UNK        -0.2240 
     71 C71        33.1808   -0.8192   -4.2653 C.3       12 UNK         0.0194 
     72 H72        26.7974   -6.4432   -6.1468 H         1 UNK         0.0906 
     73 H73        25.1047   -6.9395   -6.1908 H         1 UNK         0.0906 
     74 H74        25.5522   -5.2913   -6.6372 H         1 UNK         0.0906 
     75 H75        27.5349   -6.0025   -4.0657 H         1 UNK         0.3140 
     76 H76        25.7545   -5.7398   -1.8543 H         1 UNK         0.1085 
     77 H77        28.4540   -6.4968   -2.1380 H         1 UNK         0.0836 
     78 H78        27.5073   -6.4396   -0.7041 H         1 UNK         0.0836 
     79 H79        29.4963   -4.3382   -3.1052 H         1 UNK         0.0731 
     80 H80        30.8968   -4.9208   -2.2378 H         1 UNK         0.0731 
     81 H81        31.9608   -3.2114   -3.8353 H         1 UNK         0.1312 
     82 H82        32.0647    0.8284   -2.4009 H         1 UNK         0.1406 
     83 H83        29.4034   -1.9959   -0.6086 H         1 UNK         0.1631 
     84 H84        30.9850    1.1120    0.0081 H         1 UNK         0.0717 
     85 H85        29.5746    0.1444    0.3509 H         1 UNK         0.0717 
     86 H86        27.9801   -0.2594   -1.8558 H         1 UNK         0.0934 
     87 H87        26.8833    1.0733   -1.9123 H         1 UNK         0.0934 
     88 H88        29.1624    0.9966   -3.9414 H         1 UNK         0.0739 
     89 H89        27.3536   -1.1458   -3.8500 H         1 UNK         0.3093 
     90 H90        27.1782   -1.8053   -7.3567 H         1 UNK         0.0818 
     91 H91        27.8954   -4.0310   -6.5543 H         1 UNK         0.0819 
     92 H92        29.2530   -2.9194   -6.5446 H         1 UNK         0.0819 
     93 H93        28.4670   -3.3375   -5.0367 H         1 UNK         0.0819 
     94 H94        25.9991   -2.8799   -4.9166 H         1 UNK         0.3041 
     95 H95        23.0699   -0.8758   -5.0715 H         1 UNK         0.0784 
     96 H96        22.4533   -2.5274   -6.7775 H         1 UNK         0.0793 
     97 H97        23.3229   -3.8012   -5.9426 H         1 UNK         0.0793 
     98 H98        21.8887   -3.0821   -5.2099 H         1 UNK         0.0793 
     99 H99        23.8673   -3.1724   -3.5092 H         1 UNK         0.3024 
    100 H100       25.6913   -1.3226   -1.0746 H         1 UNK         0.1171 
    101 H101       23.9902   -2.1369    0.5352 H         1 UNK         0.0786 
    102 H102       23.3424   -0.7942   -0.3909 H         1 UNK         0.0786 
    103 H103       22.8481   -2.4370   -0.7761 H         1 UNK         0.0786 
    104 H104       24.8006   -3.9996   -0.9907 H         1 UNK         0.2977 
    105 H105       25.5809    1.0474   -4.1991 H         1 UNK         0.3127 
    106 H106       25.2773    3.8251   -4.6247 H         1 UNK         0.0770 
    107 H107       23.4918    1.5100   -5.5471 H         1 UNK         0.0814 
    108 H108       23.0093    3.1963   -5.4359 H         1 UNK         0.0814 
    109 H109       23.4143    2.3060   -3.9762 H         1 UNK         0.0814 
    110 H110       25.7267    1.1657   -7.0093 H         1 UNK         0.2983 
    111 H111       25.5078    2.7947   -9.3421 H         1 UNK         0.0947 
    112 H112       26.9390    0.1144   -8.9194 H         1 UNK         0.0806 
    113 H113       26.5512    0.8246  -10.4813 H         1 UNK         0.0806 
    114 H114       25.2583    0.3269   -9.4024 H         1 UNK         0.0806 
    115 H115       28.2833    1.8847   -7.3354 H         1 UNK         0.3000 
    116 H116       30.2773    2.6617   -6.9722 H         1 UNK         0.0850 
    117 H117       30.9657    4.9599   -7.5799 H         1 UNK         0.0810 
    118 H118       29.3270    4.9515   -6.9459 H         1 UNK         0.0810 
    119 H119       29.6048    5.1170   -8.6794 H         1 UNK         0.0810 
    120 H120       29.5030    3.0193  -10.4333 H         1 UNK         0.3040 
    121 H121       32.1157    2.5973  -11.4879 H         1 UNK         0.0766 
    122 H122       30.8831    2.0721  -13.6067 H         1 UNK         0.0812 
    123 H123       30.2391    3.5117  -12.8347 H         1 UNK         0.0812 
    124 H124       29.3691    1.9825  -12.7156 H         1 UNK         0.0812 
    125 H125       29.7636    0.3473  -10.2320 H         1 UNK         0.3205 
    126 H126       30.7523   -2.1179  -11.2367 H         1 UNK         0.0754 
    127 H127       29.4542   -3.0683   -9.3044 H         1 UNK         0.0769 
    128 H128       28.5158   -1.8682  -10.1776 H         1 UNK         0.0769 
    129 H129       29.2684   -1.4518   -8.6371 H         1 UNK         0.0769 
    130 H130       32.0788    0.0240   -8.7776 H         1 UNK         0.2981 
    131 H131       33.7523   -2.0040   -7.5312 H         1 UNK         0.0541 
    132 H132       35.7545   -0.6607  -10.7553 H         1 UNK         0.3459 
    133 H133       34.0239   -0.4650  -10.6194 H         1 UNK         0.3459 
    134 H134       34.7519   -0.1074   -6.2886 H         1 UNK         0.0612 
    135 H135       33.8806    1.0358   -7.2694 H         1 UNK         0.0612 
    136 H136       33.7187   -1.7181   -4.5709 H         1 UNK         0.0624 
    137 H137       33.9220   -0.1376   -3.8453 H         1 UNK         0.0624 
@<TRIPOS>BOND
     1    1    2 1    
     2    1   72 1    
     3    1   73 1    
     4    1   74 1    
     5    2    3 2    
     6    2    4 am   BACKBONE|DICT|INTERRES
     7    4    5 1    
     8    4   75 1    
     9    5    6 1    
    10    5   35 1    
    11    5   76 1    
    12    6    7 1    
    13    6   77 1    
    14    6   78 1    
    15    7    8 1    
    16    8    9 1    
    17    8   79 1    
    18    8   80 1    
    19    9   10 ar   
    20    9   14 ar   
    21   10   11 ar   
    22   10   81 1    
    23   11   12 ar   
    24   11   71 1    
    25   12   13 ar   
    26   12   82 1    
    27   13   14 ar   
    28   13   15 1    
    29   14   83 1    
    30   15   16 1    
    31   15   84 1    
    32   15   85 1    
    33   16   17 1    
    34   17   18 1    
    35   17   86 1    
    36   17   87 1    
    37   18   19 1    
    38   18   37 1    
    39   18   88 1    
    40   19   20 am   BACKBONE|DICT|INTERRES
    41   19   89 1    
    42   20   21 2    
    43   20   22 1    
    44   22   23 1    
    45   22   24 1    
    46   22   90 1    
    47   23   91 1    
    48   23   92 1    
    49   23   93 1    
    50   24   25 am   BACKBONE|DICT|INTERRES
    51   24   94 1    
    52   25   26 2    
    53   25   27 1    
    54   27   28 1    
    55   27   29 1    
    56   27   95 1    
    57   28   96 1    
    58   28   97 1    
    59   28   98 1    
    60   29   30 am   BACKBONE|DICT|INTERRES
    61   29   99 1    
    62   30   31 2    
    63   30   32 1    
    64   32   33 1    
    65   32   34 1    
    66   32  100 1    
    67   33  101 1    
    68   33  102 1    
    69   33  103 1    
    70   34   35 am   BACKBONE|DICT|INTERRES
    71   34  104 1    
    72   35   36 2    
    73   37   38 2    
    74   37   39 am   BACKBONE|DICT|INTERRES
    75   39   40 1    
    76   39  105 1    
    77   40   41 1    
    78   40   42 1    
    79   40  106 1    
    80   41  107 1    
    81   41  108 1    
    82   41  109 1    
    83   42   43 2    
    84   42   44 am   BACKBONE|DICT|INTERRES
    85   44   45 1    
    86   44  110 1    
    87   45   46 1    
    88   45   47 1    
    89   45  111 1    
    90   46  112 1    
    91   46  113 1    
    92   46  114 1    
    93   47   48 2    
    94   47   49 am   BACKBONE|DICT|INTERRES
    95   49   50 1    
    96   49  115 1    
    97   50   51 1    
    98   50   52 1    
    99   50  116 1    
   100   51  117 1    
   101   51  118 1    
   102   51  119 1    
   103   52   53 2    
   104   52   54 am   BACKBONE|DICT|INTERRES
   105   54   55 1    
   106   54  120 1    
   107   55   56 1    
   108   55   57 1    
   109   55  121 1    
   110   56  122 1    
   111   56  123 1    
   112   56  124 1    
   113   57   58 2    
   114   57   59 am   BACKBONE|DICT|INTERRES
   115   59   60 1    
   116   59  125 1    
   117   60   61 1    
   118   60   62 1    
   119   60  126 1    
   120   61  127 1    
   121   61  128 1    
   122   61  129 1    
   123   62   63 2    
   124   62   64 am   BACKBONE|DICT|INTERRES
   125   64   65 1    
   126   64  130 1    
   127   65   66 1    
   128   65   69 1    
   129   65  131 1    
   130   66   67 am   BACKBONE|DICT|INTERRES
   131   66   68 2    
   132   67  132 1    
   133   67  133 1    
   134   69   70 1    
   135   69  134 1    
   136   69  135 1    
   137   70   71 1    
   138   71  136 1    
   139   71  137 1    
@<TRIPOS>SUBSTRUCTURE
     1 UNK         1 GROUP             0       ****    0 ROOT    
