@<TRIPOS>MOLECULE
3R137
137   139    1
SMALL
USER_CHARGES


@<TRIPOS>ATOM
      1 CA         23.0479   -6.3274   -1.2183 C.3       0 UNK        -0.2020 
      2 C          24.2750   -5.4815   -0.9154 C.2       0 UNK         0.4855 
      3 O          24.3573   -4.8800    0.1562 O.2       0 UNK        -0.5197 
      4 N          25.2279   -5.4142   -1.8548 N.am      1 UNK        -0.4892 
      5 CA         26.4789   -4.6511   -1.7541 C.3       1 UNK         0.0835 
      6 C6         27.5758   -5.2877   -2.6496 C.3       12 UNK        -0.0855 
      7 S7         29.2694   -4.7584   -2.2113 S.3       12 UNK        -0.2931 
      8 C8         29.7739   -3.8803   -3.7309 C.3       12 UNK         0.0378 
      9 C9         30.6267   -2.6513   -3.4550 C.ar      12 UNK        -0.0802 
     10 C10        31.8063   -2.4310   -4.1718 C.ar      12 UNK        -0.0944 
     11 C11        32.5513   -1.2648   -3.9686 C.ar      12 UNK        -0.0787 
     12 C12        32.1087   -0.3134   -3.0442 C.ar      12 UNK        -0.0862 
     13 C13        30.9292   -0.5231   -2.3242 C.ar      12 UNK        -0.0733 
     14 C14        30.1991   -1.6957   -2.5303 C.ar      12 UNK        -0.0832 
     15 C15        30.4391    0.5151   -1.3263 C.3       12 UNK         0.0240 
     16 S16        29.4879    1.8404   -2.1361 S.3       12 UNK        -0.2522 
     17 C17        28.0152    0.9486   -2.7418 C.3       12 UNK        -0.0967 
     18 CA         27.9693    0.8830   -4.2923 C.3       5 UNK         0.0660 
     19 N          27.3065   -0.3278   -4.7893 N.am      5 UNK        -0.4015 
     20 C          27.2483   -0.6956   -6.0788 C.2       4 UNK         0.4946 
     21 O          27.8809   -0.1420   -6.9795 O.2       4 UNK        -0.5353 
     22 CA         26.2769   -1.8328   -6.4440 C.3       4 UNK         0.0277 
     23 CB         26.9705   -3.2023   -6.4820 C.3       4 UNK        -0.1981 
     24 N          25.1198   -1.8960   -5.5494 N.am      4 UNK        -0.4209 
     25 C          24.1044   -1.0221   -5.5627 C.2       3 UNK         0.4942 
     26 O          24.0093   -0.0963   -6.3670 O.2       3 UNK        -0.5208 
     27 CA         23.0444   -1.1814   -4.4596 C.3       3 UNK         0.0250 
     28 CB         22.0421   -2.2890   -4.8217 C.3       3 UNK        -0.1990 
     29 N          23.6335   -1.4585   -3.1460 N.am      3 UNK        -0.4232 
     30 C          24.4254   -0.6062   -2.4800 C.2       2 UNK         0.4993 
     31 O          24.7095    0.5198   -2.8867 O.2       2 UNK        -0.5286 
     32 CA         25.0463   -1.1039   -1.1643 C.3       2 UNK         0.0209 
     33 CB         24.1070   -0.8098    0.0155 C.3       2 UNK        -0.1931 
     34 N          25.4034   -2.5273   -1.1582 N.am      2 UNK        -0.4546 
     35 C          26.2259   -3.1460   -2.0174 C.2       1 UNK         0.5154 
     36 O          26.7268   -2.5810   -2.9916 O.2       1 UNK        -0.5181 
     37 C          27.3161    2.1508   -4.8803 C.2       5 UNK         0.5014 
     38 O          28.0120    2.9775   -5.4702 O.2       5 UNK        -0.5248 
     39 N          25.9855    2.2581   -4.7375 N.am      6 UNK        -0.4434 
     40 CA         25.1654    3.3625   -5.2440 C.3       6 UNK         0.0363 
     41 CB         23.7237    3.2057   -4.7353 C.3       6 UNK        -0.1936 
     42 C          25.1903    3.4884   -6.7765 C.2       6 UNK         0.5081 
     43 O          25.2487    4.6059   -7.2899 O.2       6 UNK        -0.5248 
     44 N          25.1765    2.3469   -7.4785 N.am      7 UNK        -0.4718 
     45 CA         25.3218    2.2656   -8.9353 C.3       7 UNK         0.0273 
     46 CB         24.8709    0.8743   -9.4080 C.3       7 UNK        -0.1935 
     47 C          26.7508    2.5560   -9.4343 C.2       7 UNK         0.5018 
     48 O          26.9177    2.7966  -10.6306 O.2       7 UNK        -0.5186 
     49 N          27.7396    2.5146   -8.5269 N.am      8 UNK        -0.4240 
     50 CA         29.1806    2.6590   -8.7533 C.3       8 UNK         0.0235 
     51 CB         29.5277    4.0947   -9.2010 C.3       8 UNK        -0.2000 
     52 C          29.7132    1.5780   -9.7094 C.2       8 UNK         0.4941 
     53 O          30.2518    1.8992  -10.7718 O.2       8 UNK        -0.5273 
     54 N          29.5236    0.3080   -9.3238 N.am      9 UNK        -0.4262 
     55 CA         29.8608   -0.9000  -10.0879 C.3       9 UNK         0.0264 
     56 CB         29.1622   -2.1030   -9.4292 C.3       9 UNK        -0.1955 
     57 C          31.3768   -1.1389  -10.2792 C.2       9 UNK         0.5031 
     58 O          31.8932   -2.1870   -9.8833 O.2       9 UNK        -0.5390 
     59 N          32.0559   -0.1674  -10.9014 N.am      10 UNK        -0.4204 
     60 CA         33.4639   -0.1105  -11.3160 C.3       10 UNK         0.0237 
     61 CB         33.7915   -1.2097  -12.3461 C.3       10 UNK        -0.1985 
     62 C          34.4854   -0.1066  -10.1656 C.2       10 UNK         0.4970 
     63 O          35.3512    0.7689  -10.1449 O.2       10 UNK        -0.4914 
     64 N          34.3828   -1.0816   -9.2546 N.am      11 UNK        -0.4285 
     65 CA         35.2831   -1.3152   -8.1103 C.3       11 UNK         0.1007 
     66 C          36.7531   -1.6700   -8.4987 C.2       11 UNK         0.5703 
     67 N          37.0215   -2.1243   -9.7176 N.am      11 UNK        -0.7361 
     68 O          37.6629   -1.5703   -7.6783 O.2       11 UNK        -0.4986 
     69 C69        35.1869   -0.1960   -7.0323 C.3       12 UNK        -0.0947 
     70 S70        33.5266   -0.1119   -6.2830 S.3       12 UNK        -0.2240 
     71 C71        33.8352   -1.0354   -4.7472 C.3       12 UNK         0.0194 
     72 H72        22.1500   -5.7109   -1.1860 H         1 UNK         0.0906 
     73 H73        23.1047   -6.7930   -2.2020 H         1 UNK         0.0906 
     74 H74        22.9453   -7.1175   -0.4749 H         1 UNK         0.0906 
     75 H75        25.0920   -5.9110   -2.7244 H         1 UNK         0.3140 
     76 H76        26.8289   -4.7256   -0.7215 H         1 UNK         0.1085 
     77 H77        27.3690   -5.1208   -3.7068 H         1 UNK         0.0836 
     78 H78        27.5589   -6.3717   -2.5241 H         1 UNK         0.0836 
     79 H79        28.8982   -3.5330   -4.2726 H         1 UNK         0.0731 
     80 H80        30.2898   -4.5813   -4.3888 H         1 UNK         0.0731 
     81 H81        32.1393   -3.1583   -4.8998 H         1 UNK         0.1312 
     82 H82        32.6770    0.5942   -2.8919 H         1 UNK         0.1406 
     83 H83        29.2837   -1.8671   -1.9815 H         1 UNK         0.1631 
     84 H84        31.2922    0.9590   -0.8111 H         1 UNK         0.0717 
     85 H85        29.8274    0.0483   -0.5526 H         1 UNK         0.0717 
     86 H86        28.0062   -0.0532   -2.3176 H         1 UNK         0.0934 
     87 H87        27.1301    1.4319   -2.3243 H         1 UNK         0.0934 
     88 H88        28.9944    0.8340   -4.6677 H         1 UNK         0.0739 
     89 H89        26.8281   -0.9062   -4.1075 H         1 UNK         0.3093 
     90 H90        25.9179   -1.6226   -7.4530 H         1 UNK         0.0818 
     91 H91        27.9682   -3.1403   -6.9157 H         1 UNK         0.0819 
     92 H92        26.3997   -3.9095   -7.0839 H         1 UNK         0.0819 
     93 H93        27.0686   -3.6298   -5.4878 H         1 UNK         0.0819 
     94 H94        25.1525   -2.5882   -4.8144 H         1 UNK         0.3041 
     95 H95        22.4993   -0.2375   -4.3888 H         1 UNK         0.0784 
     96 H96        21.5818   -2.0948   -5.7917 H         1 UNK         0.0793 
     97 H97        22.5192   -3.2683   -4.8776 H         1 UNK         0.0793 
     98 H98        21.2365   -2.3491   -4.0897 H         1 UNK         0.0793 
     99 H99        23.4498   -2.3624   -2.7361 H         1 UNK         0.3024 
    100 H100       25.9676   -0.5393   -1.0109 H         1 UNK         0.1171 
    101 H101       24.5795   -1.0501    0.9681 H         1 UNK         0.0786 
    102 H102       23.8376    0.2471    0.0474 H         1 UNK         0.0786 
    103 H103       23.1806   -1.3816   -0.0528 H         1 UNK         0.0786 
    104 H104       24.9931   -3.1021   -0.4272 H         1 UNK         0.2977 
    105 H105       25.4963    1.5466   -4.1956 H         1 UNK         0.3127 
    106 H106       25.5736    4.2876   -4.8319 H         1 UNK         0.0770 
    107 H107       23.2693    2.2800   -5.0904 H         1 UNK         0.0814 
    108 H108       23.0966    4.0303   -5.0767 H         1 UNK         0.0814 
    109 H109       23.6863    3.1983   -3.6458 H         1 UNK         0.0814 
    110 H110       25.0307    1.4708   -6.9836 H         1 UNK         0.2983 
    111 H111       24.6625    3.0108   -9.3857 H         1 UNK         0.0947 
    112 H112       24.8991    0.8024  -10.4961 H         1 UNK         0.0806 
    113 H113       23.8491    0.6581   -9.0953 H         1 UNK         0.0806 
    114 H114       25.5172    0.0902   -9.0138 H         1 UNK         0.0806 
    115 H115       27.4819    2.2959   -7.5720 H         1 UNK         0.3000 
    116 H116       29.6626    2.4879   -7.7892 H         1 UNK         0.0850 
    117 H117       30.6072    4.2248   -9.2852 H         1 UNK         0.0810 
    118 H118       29.1668    4.8298   -8.4817 H         1 UNK         0.0810 
    119 H119       29.0953    4.3356  -10.1726 H         1 UNK         0.0810 
    120 H120       29.0388    0.1516   -8.4408 H         1 UNK         0.3040 
    121 H121       29.4363   -0.7829  -11.0871 H         1 UNK         0.0766 
    122 H122       28.0857   -1.9480   -9.3543 H         1 UNK         0.0812 
    123 H123       29.5489   -2.2806   -8.4253 H         1 UNK         0.0812 
    124 H124       29.3188   -3.0149  -10.0070 H         1 UNK         0.0812 
    125 H125       31.5163    0.6786  -11.0901 H         1 UNK         0.3205 
    126 H126       33.5717    0.8488  -11.8251 H         1 UNK         0.0754 
    127 H127       34.8158   -1.1115  -12.7085 H         1 UNK         0.0769 
    128 H128       33.1349   -1.1452  -13.2139 H         1 UNK         0.0769 
    129 H129       33.6904   -2.2106  -11.9255 H         1 UNK         0.0769 
    130 H130       33.6027   -1.7275   -9.3565 H         1 UNK         0.2981 
    131 H131       34.9157   -2.2317   -7.6477 H         1 UNK         0.0541 
    132 H132       36.2858   -2.2309  -10.3968 H         1 UNK         0.3459 
    133 H133       37.9710   -2.3628   -9.9570 H         1 UNK         0.3459 
    134 H134       35.9137   -0.3532   -6.2337 H         1 UNK         0.0612 
    135 H135       35.4262    0.7780   -7.4605 H         1 UNK         0.0612 
    136 H136       34.3009   -1.9925   -4.9879 H         1 UNK         0.0624 
    137 H137       34.5522   -0.4877   -4.1335 H         1 UNK         0.0624 
@<TRIPOS>BOND
     1    1    2 1    
     2    1   72 1    
     3    1   73 1    
     4    1   74 1    
     5    2    3 2    
     6    2    4 am   BACKBONE|DICT|INTERRES
     7    4    5 1    
     8    4   75 1    
     9    5    6 1    
    10    5   35 1    
    11    5   76 1    
    12    6    7 1    
    13    6   77 1    
    14    6   78 1    
    15    7    8 1    
    16    8    9 1    
    17    8   79 1    
    18    8   80 1    
    19    9   10 ar   
    20    9   14 ar   
    21   10   11 ar   
    22   10   81 1    
    23   11   12 ar   
    24   11   71 1    
    25   12   13 ar   
    26   12   82 1    
    27   13   14 ar   
    28   13   15 1    
    29   14   83 1    
    30   15   16 1    
    31   15   84 1    
    32   15   85 1    
    33   16   17 1    
    34   17   18 1    
    35   17   86 1    
    36   17   87 1    
    37   18   19 1    
    38   18   37 1    
    39   18   88 1    
    40   19   20 am   BACKBONE|DICT|INTERRES
    41   19   89 1    
    42   20   21 2    
    43   20   22 1    
    44   22   23 1    
    45   22   24 1    
    46   22   90 1    
    47   23   91 1    
    48   23   92 1    
    49   23   93 1    
    50   24   25 am   BACKBONE|DICT|INTERRES
    51   24   94 1    
    52   25   26 2    
    53   25   27 1    
    54   27   28 1    
    55   27   29 1    
    56   27   95 1    
    57   28   96 1    
    58   28   97 1    
    59   28   98 1    
    60   29   30 am   BACKBONE|DICT|INTERRES
    61   29   99 1    
    62   30   31 2    
    63   30   32 1    
    64   32   33 1    
    65   32   34 1    
    66   32  100 1    
    67   33  101 1    
    68   33  102 1    
    69   33  103 1    
    70   34   35 am   BACKBONE|DICT|INTERRES
    71   34  104 1    
    72   35   36 2    
    73   37   38 2    
    74   37   39 am   BACKBONE|DICT|INTERRES
    75   39   40 1    
    76   39  105 1    
    77   40   41 1    
    78   40   42 1    
    79   40  106 1    
    80   41  107 1    
    81   41  108 1    
    82   41  109 1    
    83   42   43 2    
    84   42   44 am   BACKBONE|DICT|INTERRES
    85   44   45 1    
    86   44  110 1    
    87   45   46 1    
    88   45   47 1    
    89   45  111 1    
    90   46  112 1    
    91   46  113 1    
    92   46  114 1    
    93   47   48 2    
    94   47   49 am   BACKBONE|DICT|INTERRES
    95   49   50 1    
    96   49  115 1    
    97   50   51 1    
    98   50   52 1    
    99   50  116 1    
   100   51  117 1    
   101   51  118 1    
   102   51  119 1    
   103   52   53 2    
   104   52   54 am   BACKBONE|DICT|INTERRES
   105   54   55 1    
   106   54  120 1    
   107   55   56 1    
   108   55   57 1    
   109   55  121 1    
   110   56  122 1    
   111   56  123 1    
   112   56  124 1    
   113   57   58 2    
   114   57   59 am   BACKBONE|DICT|INTERRES
   115   59   60 1    
   116   59  125 1    
   117   60   61 1    
   118   60   62 1    
   119   60  126 1    
   120   61  127 1    
   121   61  128 1    
   122   61  129 1    
   123   62   63 2    
   124   62   64 am   BACKBONE|DICT|INTERRES
   125   64   65 1    
   126   64  130 1    
   127   65   66 1    
   128   65   69 1    
   129   65  131 1    
   130   66   67 am   BACKBONE|DICT|INTERRES
   131   66   68 2    
   132   67  132 1    
   133   67  133 1    
   134   69   70 1    
   135   69  134 1    
   136   69  135 1    
   137   70   71 1    
   138   71  136 1    
   139   71  137 1    
@<TRIPOS>SUBSTRUCTURE
     1 UNK         1 GROUP             0       ****    0 ROOT    
