@<TRIPOS>MOLECULE
3R137
137   139    1
SMALL
USER_CHARGES


@<TRIPOS>ATOM
      1 CA         26.0669    0.1048    1.9449 C.3       0 UNK        -0.2020 
      2 C          26.6961   -0.5307    0.7139 C.2       0 UNK         0.4855 
      3 O          26.5084   -0.0294   -0.3937 O.2       0 UNK        -0.5197 
      4 N          27.4458   -1.6230    0.9045 N.am      1 UNK        -0.4892 
      5 CA         28.1055   -2.3945   -0.1561 C.3       1 UNK         0.0835 
      6 C6         29.1516   -3.3757    0.4299 C.3       12 UNK        -0.0855 
      7 S7         30.5256   -2.4863    1.2372 S.3       12 UNK        -0.2931 
      8 C8         31.9051   -2.7871    0.0828 C.3       12 UNK         0.0378 
      9 C9         31.6187   -2.2834   -1.3271 C.ar      12 UNK        -0.0802 
     10 C10        31.5698   -3.1825   -2.3983 C.ar      12 UNK        -0.0944 
     11 C11        31.3338   -2.7249   -3.6978 C.ar      12 UNK        -0.0787 
     12 C12        31.1302   -1.3607   -3.9214 C.ar      12 UNK        -0.0862 
     13 C13        31.1797   -0.4521   -2.8603 C.ar      12 UNK        -0.0733 
     14 C14        31.4299   -0.9178   -1.5659 C.ar      12 UNK        -0.0832 
     15 C15        30.9817    1.0344   -3.1215 C.3       12 UNK         0.0240 
     16 S16        29.3581    1.6422   -2.5582 S.3       12 UNK        -0.2522 
     17 C17        28.1932    0.5779   -3.4733 C.3       12 UNK        -0.0967 
     18 CA         28.0123    0.9808   -4.9588 C.3       5 UNK         0.0660 
     19 N          27.5903   -0.1611   -5.7735 N.am      5 UNK        -0.4015 
     20 C          27.5909   -0.1849   -7.1149 C.2       4 UNK         0.4946 
     21 O          27.9826    0.7509   -7.8077 O.2       4 UNK        -0.5353 
     22 CA         27.0335   -1.4375   -7.8174 C.3       4 UNK         0.0277 
     23 CB         28.1731   -2.4195   -8.1213 C.3       4 UNK        -0.1981 
     24 N          25.9956   -2.1346   -7.0579 N.am      4 UNK        -0.4209 
     25 C          24.8364   -1.6012   -6.6467 C.2       3 UNK         0.4942 
     26 O          24.4539   -0.4735   -6.9603 O.2       3 UNK        -0.5208 
     27 CA         24.0099   -2.4406   -5.6505 C.3       3 UNK         0.0250 
     28 CB         22.9411   -3.2563   -6.3943 C.3       3 UNK        -0.1990 
     29 N          24.8177   -3.3398   -4.8070 N.am      3 UNK        -0.4232 
     30 C          25.8235   -2.9425   -4.0126 C.2       2 UNK         0.4993 
     31 O          26.1720   -1.7651   -3.9061 O.2       2 UNK        -0.5286 
     32 CA         26.6339   -4.0400   -3.3037 C.3       2 UNK         0.0209 
     33 CB         27.5309   -4.7768   -4.3142 C.3       2 UNK        -0.1931 
     34 N          27.4910   -3.4558   -2.2698 N.am      2 UNK        -0.4546 
     35 C          27.0842   -3.1499   -1.0324 C.2       1 UNK         0.5154 
     36 O          25.9825   -3.4701   -0.5755 O.2       1 UNK        -0.5181 
     37 C          27.0472    2.1723   -5.1192 C.2       5 UNK         0.5014 
     38 O          27.5031    3.3074   -5.2606 O.2       5 UNK        -0.5248 
     39 N          25.7354    1.8891   -5.1538 N.am      6 UNK        -0.4434 
     40 CA         24.6828    2.8763   -5.4118 C.3       6 UNK         0.0363 
     41 CB         23.3128    2.2801   -5.0514 C.3       6 UNK        -0.1936 
     42 C          24.6957    3.3831   -6.8647 C.2       6 UNK         0.5081 
     43 O          24.4120    4.5579   -7.0984 O.2       6 UNK        -0.5248 
     44 N          25.0559    2.5023   -7.8088 N.am      7 UNK        -0.4718 
     45 CA         25.2609    2.8316   -9.2237 C.3       7 UNK         0.0273 
     46 CB         25.2029    1.5357  -10.0488 C.3       7 UNK        -0.1935 
     47 C          26.5811    3.5813   -9.5006 C.2       7 UNK         0.5018 
     48 O          26.7432    4.1061  -10.6029 O.2       7 UNK        -0.5186 
     49 N          27.4938    3.6013   -8.5167 N.am      8 UNK        -0.4240 
     50 CA         28.8589    4.1382   -8.5574 C.3       8 UNK         0.0235 
     51 CB         28.8488    5.6707   -8.7436 C.3       8 UNK        -0.2000 
     52 C          29.7584    3.4042   -9.5734 C.2       8 UNK         0.4941 
     53 O          30.5488    4.0424  -10.2723 O.2       8 UNK        -0.5273 
     54 N          29.6222    2.0744   -9.6322 N.am      9 UNK        -0.4262 
     55 CA         30.4067    1.1726  -10.4715 C.3       9 UNK         0.0264 
     56 CB         29.4443    0.2028  -11.1774 C.3       9 UNK        -0.1955 
     57 C          31.4064    0.3969   -9.6030 C.2       9 UNK         0.5031 
     58 O          31.1403    0.1464   -8.4242 O.2       9 UNK        -0.5390 
     59 N          32.5255   -0.0200  -10.2091 N.am      10 UNK        -0.4204 
     60 CA         33.6159   -0.7666   -9.5683 C.3       10 UNK         0.0237 
     61 CB         34.9067   -0.5585  -10.3839 C.3       10 UNK        -0.1985 
     62 C          33.2805   -2.2590   -9.3565 C.2       10 UNK         0.4970 
     63 O          34.0305   -3.1301   -9.8006 O.2       10 UNK        -0.4914 
     64 N          32.1497   -2.5176   -8.6906 N.am      11 UNK        -0.4285 
     65 CA         31.6158   -3.8426   -8.3268 C.3       11 UNK         0.1007 
     66 C          31.1968   -4.7437   -9.5285 C.2       11 UNK         0.5703 
     67 N          31.0136   -4.2022  -10.7270 N.am      11 UNK        -0.7361 
     68 O          30.9960   -5.9455   -9.3689 O.2       11 UNK        -0.4986 
     69 C69        32.4842   -4.5941   -7.2749 C.3       12 UNK        -0.0947 
     70 S70        32.8761   -3.5831   -5.8075 S.3       12 UNK        -0.2240 
     71 C71        31.3206   -3.6920   -4.8703 C.3       12 UNK         0.0194 
     72 H72        24.9813    0.1090    1.8508 H         1 UNK         0.0906 
     73 H73        26.3260   -0.4296    2.8588 H         1 UNK         0.0906 
     74 H74        26.4041    1.1358    2.0482 H         1 UNK         0.0906 
     75 H75        27.5581   -1.9908    1.8382 H         1 UNK         0.3140 
     76 H76        28.6207   -1.6813   -0.8047 H         1 UNK         0.1085 
     77 H77        29.5579   -4.0294   -0.3443 H         1 UNK         0.0836 
     78 H78        28.6880   -4.0385    1.1632 H         1 UNK         0.0836 
     79 H79        32.1330   -3.8542    0.0765 H         1 UNK         0.0731 
     80 H80        32.7974   -2.2880    0.4631 H         1 UNK         0.0731 
     81 H81        31.7321   -4.2376   -2.2245 H         1 UNK         0.1312 
     82 H82        30.9503   -1.0058   -4.9277 H         1 UNK         0.1406 
     83 H83        31.4707   -0.2179   -0.7419 H         1 UNK         0.1631 
     84 H84        31.1005    1.2587   -4.1825 H         1 UNK         0.0717 
     85 H85        31.7626    1.5964   -2.6071 H         1 UNK         0.0717 
     86 H86        28.5412   -0.4517   -3.3948 H         1 UNK         0.0934 
     87 H87        27.2366    0.5824   -2.9467 H         1 UNK         0.0934 
     88 H88        28.9814    1.2942   -5.3528 H         1 UNK         0.0739 
     89 H89        27.1774   -0.9343   -5.2581 H         1 UNK         0.3093 
     90 H90        26.5928   -1.1177   -8.7627 H         1 UNK         0.0818 
     91 H91        28.5868   -2.8387   -7.2041 H         1 UNK         0.0819 
     92 H92        27.8332   -3.2446   -8.7476 H         1 UNK         0.0819 
     93 H93        28.9874   -1.9248   -8.6519 H         1 UNK         0.0819 
     94 H94        26.2085   -3.0749   -6.7607 H         1 UNK         0.3041 
     95 H95        23.5034   -1.7383   -4.9850 H         1 UNK         0.0784 
     96 H96        22.3151   -2.6086   -7.0102 H         1 UNK         0.0793 
     97 H97        23.3868   -4.0018   -7.0542 H         1 UNK         0.0793 
     98 H98        22.2803   -3.7739   -5.6986 H         1 UNK         0.0793 
     99 H99        24.5937   -4.3239   -4.8557 H         1 UNK         0.3024 
    100 H100       25.9407   -4.7510   -2.8476 H         1 UNK         0.1171 
    101 H101       28.1457   -5.5306   -3.8216 H         1 UNK         0.0786 
    102 H102       26.9374   -5.2936   -5.0693 H         1 UNK         0.0786 
    103 H103       28.1990   -4.0913   -4.8363 H         1 UNK         0.0786 
    104 H104       28.4001   -3.1385   -2.5733 H         1 UNK         0.2977 
    105 H105       25.4437    0.9249   -5.0693 H         1 UNK         0.3127 
    106 H106       24.8603    3.7353   -4.7609 H         1 UNK         0.0770 
    107 H107       23.0683    1.4173   -5.6717 H         1 UNK         0.0814 
    108 H108       22.5204    3.0161   -5.1937 H         1 UNK         0.0814 
    109 H109       23.2780    1.9654   -4.0084 H         1 UNK         0.0814 
    110 H110       25.2092    1.5387   -7.5345 H         1 UNK         0.2983 
    111 H111       24.4436    3.4801   -9.5468 H         1 UNK         0.0947 
    112 H112       25.2240    1.7544  -11.1173 H         1 UNK         0.0806 
    113 H113       24.2903    0.9732   -9.8500 H         1 UNK         0.0806 
    114 H114       26.0530    0.8880   -9.8367 H         1 UNK         0.0806 
    115 H115       27.2590    3.0998   -7.6699 H         1 UNK         0.3000 
    116 H116       29.2882    3.9313   -7.5757 H         1 UNK         0.0850 
    117 H117       29.8524    6.0834   -8.6349 H         1 UNK         0.0810 
    118 H118       28.2175    6.1555   -7.9989 H         1 UNK         0.0810 
    119 H119       28.4857    5.9578   -9.7308 H         1 UNK         0.0810 
    120 H120       29.0067    1.6166   -8.9572 H         1 UNK         0.3040 
    121 H121       30.9575    1.7357  -11.2278 H         1 UNK         0.0766 
    122 H122       29.9850   -0.5082  -11.8032 H         1 UNK         0.0812 
    123 H123       28.8522   -0.3701  -10.4635 H         1 UNK         0.0812 
    124 H124       28.7505    0.7408  -11.8237 H         1 UNK         0.0812 
    125 H125       32.6473    0.1886  -11.1902 H         1 UNK         0.3205 
    126 H126       33.7849   -0.3421   -8.5761 H         1 UNK         0.0754 
    127 H127       35.7549   -1.0529   -9.9081 H         1 UNK         0.0769 
    128 H128       35.1583    0.4991  -10.4660 H         1 UNK         0.0769 
    129 H129       34.8172   -0.9625  -11.3931 H         1 UNK         0.0769 
    130 H130       31.6076   -1.7144   -8.3838 H         1 UNK         0.2981 
    131 H131       30.6699   -3.6272   -7.8375 H         1 UNK         0.0541 
    132 H132       31.1772   -3.2205  -10.8751 H         1 UNK         0.3459 
    133 H133       30.7313   -4.7905  -11.4948 H         1 UNK         0.3459 
    134 H134       31.9835   -5.5027   -6.9357 H         1 UNK         0.0612 
    135 H135       33.4252   -4.9157   -7.7237 H         1 UNK         0.0612 
    136 H136       30.4802   -3.4523   -5.5214 H         1 UNK         0.0624 
    137 H137       31.1716   -4.7178   -4.5295 H         1 UNK         0.0624 
@<TRIPOS>BOND
     1    1    2 1    
     2    1   72 1    
     3    1   73 1    
     4    1   74 1    
     5    2    3 2    
     6    2    4 am   BACKBONE|DICT|INTERRES
     7    4    5 1    
     8    4   75 1    
     9    5    6 1    
    10    5   35 1    
    11    5   76 1    
    12    6    7 1    
    13    6   77 1    
    14    6   78 1    
    15    7    8 1    
    16    8    9 1    
    17    8   79 1    
    18    8   80 1    
    19    9   10 ar   
    20    9   14 ar   
    21   10   11 ar   
    22   10   81 1    
    23   11   12 ar   
    24   11   71 1    
    25   12   13 ar   
    26   12   82 1    
    27   13   14 ar   
    28   13   15 1    
    29   14   83 1    
    30   15   16 1    
    31   15   84 1    
    32   15   85 1    
    33   16   17 1    
    34   17   18 1    
    35   17   86 1    
    36   17   87 1    
    37   18   19 1    
    38   18   37 1    
    39   18   88 1    
    40   19   20 am   BACKBONE|DICT|INTERRES
    41   19   89 1    
    42   20   21 2    
    43   20   22 1    
    44   22   23 1    
    45   22   24 1    
    46   22   90 1    
    47   23   91 1    
    48   23   92 1    
    49   23   93 1    
    50   24   25 am   BACKBONE|DICT|INTERRES
    51   24   94 1    
    52   25   26 2    
    53   25   27 1    
    54   27   28 1    
    55   27   29 1    
    56   27   95 1    
    57   28   96 1    
    58   28   97 1    
    59   28   98 1    
    60   29   30 am   BACKBONE|DICT|INTERRES
    61   29   99 1    
    62   30   31 2    
    63   30   32 1    
    64   32   33 1    
    65   32   34 1    
    66   32  100 1    
    67   33  101 1    
    68   33  102 1    
    69   33  103 1    
    70   34   35 am   BACKBONE|DICT|INTERRES
    71   34  104 1    
    72   35   36 2    
    73   37   38 2    
    74   37   39 am   BACKBONE|DICT|INTERRES
    75   39   40 1    
    76   39  105 1    
    77   40   41 1    
    78   40   42 1    
    79   40  106 1    
    80   41  107 1    
    81   41  108 1    
    82   41  109 1    
    83   42   43 2    
    84   42   44 am   BACKBONE|DICT|INTERRES
    85   44   45 1    
    86   44  110 1    
    87   45   46 1    
    88   45   47 1    
    89   45  111 1    
    90   46  112 1    
    91   46  113 1    
    92   46  114 1    
    93   47   48 2    
    94   47   49 am   BACKBONE|DICT|INTERRES
    95   49   50 1    
    96   49  115 1    
    97   50   51 1    
    98   50   52 1    
    99   50  116 1    
   100   51  117 1    
   101   51  118 1    
   102   51  119 1    
   103   52   53 2    
   104   52   54 am   BACKBONE|DICT|INTERRES
   105   54   55 1    
   106   54  120 1    
   107   55   56 1    
   108   55   57 1    
   109   55  121 1    
   110   56  122 1    
   111   56  123 1    
   112   56  124 1    
   113   57   58 2    
   114   57   59 am   BACKBONE|DICT|INTERRES
   115   59   60 1    
   116   59  125 1    
   117   60   61 1    
   118   60   62 1    
   119   60  126 1    
   120   61  127 1    
   121   61  128 1    
   122   61  129 1    
   123   62   63 2    
   124   62   64 am   BACKBONE|DICT|INTERRES
   125   64   65 1    
   126   64  130 1    
   127   65   66 1    
   128   65   69 1    
   129   65  131 1    
   130   66   67 am   BACKBONE|DICT|INTERRES
   131   66   68 2    
   132   67  132 1    
   133   67  133 1    
   134   69   70 1    
   135   69  134 1    
   136   69  135 1    
   137   70   71 1    
   138   71  136 1    
   139   71  137 1    
@<TRIPOS>SUBSTRUCTURE
     1 UNK         1 GROUP             0       ****    0 ROOT    
