@<TRIPOS>MOLECULE
3R137
137   139    1
SMALL
USER_CHARGES


@<TRIPOS>ATOM
      1 CA         23.3277   -4.3602   -0.2233 C.3       0 UNK        -0.2020 
      2 C          24.6473   -3.6067   -0.1593 C.2       0 UNK         0.4855 
      3 O          24.6581   -2.4151    0.1504 O.2       0 UNK        -0.5197 
      4 N          25.7638   -4.2859   -0.4540 N.am      1 UNK        -0.4892 
      5 CA         27.0971   -3.6818   -0.5475 C.3       1 UNK         0.0835 
      6 C6         28.2016   -4.7635   -0.6086 C.3       12 UNK        -0.0855 
      7 S7         29.8581   -4.1014   -0.2148 S.3       12 UNK        -0.2931 
      8 C8         30.8360   -4.6135   -1.6647 C.3       12 UNK         0.0378 
      9 C9         30.5960   -3.7235   -2.8771 C.ar      12 UNK        -0.0802 
     10 C10        31.3284   -2.5443   -3.0385 C.ar      12 UNK        -0.0944 
     11 C11        31.1494   -1.7514   -4.1750 C.ar      12 UNK        -0.0787 
     12 C12        30.2297   -2.1405   -5.1529 C.ar      12 UNK        -0.0862 
     13 C13        29.4567   -3.2973   -4.9872 C.ar      12 UNK        -0.0733 
     14 C14        29.6624   -4.0883   -3.8517 C.ar      12 UNK        -0.0832 
     15 C15        28.3676   -3.7294   -5.9716 C.3       12 UNK         0.0240 
     16 S16        28.3683   -2.9179   -7.6084 S.3       12 UNK        -0.2522 
     17 C17        27.6173   -1.2853   -7.2825 C.3       12 UNK        -0.0967 
     18 CA         26.0770   -1.3118   -7.4458 C.3       5 UNK         0.0660 
     19 N          25.4154   -1.8649   -6.2619 N.am      5 UNK        -0.4015 
     20 C          24.2042   -2.4381   -6.2543 C.2       4 UNK         0.4946 
     21 O          23.5453   -2.6710   -7.2684 O.2       4 UNK        -0.5353 
     22 CA         23.6183   -2.7965   -4.8766 C.3       4 UNK         0.0277 
     23 CB         24.0106   -4.2269   -4.4715 C.3       4 UNK        -0.1981 
     24 N          24.0365   -1.8478   -3.8388 N.am      4 UNK        -0.4209 
     25 C          23.5354   -0.6059   -3.7260 C.2       3 UNK         0.4942 
     26 O          22.6049   -0.1867   -4.4143 O.2       3 UNK        -0.5208 
     27 CA         24.1759    0.3492   -2.7004 C.3       3 UNK         0.0250 
     28 CB         23.2980    0.4602   -1.4438 C.3       3 UNK        -0.1990 
     29 N          25.5406   -0.0175   -2.3138 N.am      3 UNK        -0.4232 
     30 C          26.5997    0.0141   -3.1361 C.2       2 UNK         0.4993 
     31 O          26.5389    0.3812   -4.3086 O.2       2 UNK        -0.5286 
     32 CA         27.9356   -0.5191   -2.5934 C.3       2 UNK         0.0209 
     33 CB         28.8069    0.6266   -2.0581 C.3       2 UNK        -0.1931 
     34 N          27.7940   -1.5564   -1.5669 N.am      2 UNK        -0.4546 
     35 C          27.1580   -2.7212   -1.7518 C.2       1 UNK         0.5154 
     36 O          26.6075   -3.0358   -2.8110 O.2       1 UNK        -0.5181 
     37 C          25.5190    0.0900   -7.7621 C.2       5 UNK         0.5014 
     38 O          25.2862    0.3944   -8.9329 O.2       5 UNK        -0.5248 
     39 N          25.3152    0.9124   -6.7204 N.am      6 UNK        -0.4434 
     40 CA         24.7392    2.2647   -6.6892 C.3       6 UNK         0.0363 
     41 CB         23.3028    2.2849   -7.2458 C.3       6 UNK        -0.1936 
     42 C          25.6133    3.3426   -7.3521 C.2       6 UNK         0.5081 
     43 O          25.8420    4.3909   -6.7500 O.2       6 UNK        -0.5248 
     44 N          26.1135    3.0595   -8.5581 N.am      7 UNK        -0.4718 
     45 CA         26.9996    3.9169   -9.3489 C.3       7 UNK         0.0273 
     46 CB         26.5820    3.8139  -10.8276 C.3       7 UNK        -0.1935 
     47 C          28.4854    3.5570   -9.1496 C.2       7 UNK         0.5018 
     48 O          29.2944    3.8216  -10.0406 O.2       7 UNK        -0.5186 
     49 N          28.8187    2.9213   -8.0146 N.am      8 UNK        -0.4240 
     50 CA         30.1299    2.4035   -7.5858 C.3       8 UNK         0.0235 
     51 CB         31.1876    3.5224   -7.5076 C.3       8 UNK        -0.2000 
     52 C          30.6461    1.2102   -8.4110 C.2       8 UNK         0.4941 
     53 O          31.1709    0.2645   -7.8223 O.2       8 UNK        -0.5273 
     54 N          30.4708    1.2621   -9.7391 N.am      9 UNK        -0.4262 
     55 CA         30.8063    0.2432  -10.7372 C.3       9 UNK         0.0264 
     56 CB         29.8126   -0.9362  -10.6470 C.3       9 UNK        -0.1955 
     57 C          32.2852   -0.1720  -10.6437 C.2       9 UNK         0.5031 
     58 O          33.1541    0.6219  -11.0094 O.2       9 UNK        -0.5390 
     59 N          32.5473   -1.3772  -10.1194 N.am      10 UNK        -0.4204 
     60 CA         33.8807   -1.9304   -9.8693 C.3       10 UNK         0.0237 
     61 CB         33.7366   -3.3666   -9.3395 C.3       10 UNK        -0.1985 
     62 C          34.7439   -1.0901   -8.9094 C.2       10 UNK         0.4970 
     63 O          35.9699   -1.1394   -9.0196 O.2       10 UNK        -0.4914 
     64 N          34.1059   -0.3321   -8.0073 N.am      11 UNK        -0.4285 
     65 CA         34.7762    0.6121   -7.1004 C.3       11 UNK         0.1007 
     66 C          35.1110    1.9837   -7.7580 C.2       11 UNK         0.5703 
     67 N          34.7104    2.2576   -8.9955 N.am      11 UNK        -0.7361 
     68 O          35.7605    2.8183   -7.1326 O.2       11 UNK        -0.4986 
     69 C69        33.9997    0.8006   -5.7704 C.3       12 UNK        -0.0947 
     70 S70        33.6144   -0.7811   -4.9452 S.3       12 UNK        -0.2240 
     71 C71        31.9294   -0.4593   -4.3440 C.3       12 UNK         0.0194 
     72 H72        22.8406   -4.3469    0.7513 H         1 UNK         0.0906 
     73 H73        22.6619   -3.8859   -0.9440 H         1 UNK         0.0906 
     74 H74        23.4647   -5.3995   -0.5211 H         1 UNK         0.0906 
     75 H75        25.6975   -5.2545   -0.7326 H         1 UNK         0.3140 
     76 H76        27.2421   -3.0980    0.3648 H         1 UNK         0.1085 
     77 H77        28.2010   -5.2719   -1.5736 H         1 UNK         0.0836 
     78 H78        27.9955   -5.5396    0.1304 H         1 UNK         0.0836 
     79 H79        30.6232   -5.6567   -1.9039 H         1 UNK         0.0731 
     80 H80        31.8934   -4.5798   -1.3975 H         1 UNK         0.0731 
     81 H81        32.0455   -2.2478   -2.2852 H         1 UNK         0.1312 
     82 H82        30.1137   -1.5187   -6.0284 H         1 UNK         0.1406 
     83 H83        29.0821   -4.9916   -3.7241 H         1 UNK         0.1631 
     84 H84        27.3945   -3.5939   -5.5002 H         1 UNK         0.0717 
     85 H85        28.4691   -4.8011   -6.1485 H         1 UNK         0.0717 
     86 H86        27.9027   -0.9194   -6.2954 H         1 UNK         0.0934 
     87 H87        28.0707   -0.5952   -7.9972 H         1 UNK         0.0934 
     88 H88        25.8345   -1.9414   -8.3052 H         1 UNK         0.0739 
     89 H89        25.8706   -1.7014   -5.3755 H         1 UNK         0.3093 
     90 H90        22.5296   -2.7589   -4.9579 H         1 UNK         0.0818 
     91 H91        25.0918   -4.3635   -4.4476 H         1 UNK         0.0819 
     92 H92        23.6175   -4.4853   -3.4883 H         1 UNK         0.0819 
     93 H93        23.6111   -4.9521   -5.1815 H         1 UNK         0.0819 
     94 H94        24.8157   -2.1298   -3.2522 H         1 UNK         0.3041 
     95 H95        24.2216    1.3354   -3.1674 H         1 UNK         0.0784 
     96 H96        22.2956    0.8068   -1.6993 H         1 UNK         0.0793 
     97 H97        23.1890   -0.5003   -0.9401 H         1 UNK         0.0793 
     98 H98        23.7124    1.1711   -0.7288 H         1 UNK         0.0793 
     99 H99        25.6679   -0.3724   -1.3756 H         1 UNK         0.3024 
    100 H100       28.4521   -0.9734   -3.4388 H         1 UNK         0.1171 
    101 H101       29.7966    0.2696   -1.7722 H         1 UNK         0.0786 
    102 H102       28.9501    1.3953   -2.8190 H         1 UNK         0.0786 
    103 H103       28.3559    1.1060   -1.1885 H         1 UNK         0.0786 
    104 H104       28.2361   -1.3776   -0.6764 H         1 UNK         0.2977 
    105 H105       25.6623    0.6016   -5.8120 H         1 UNK         0.3127 
    106 H106       24.6781    2.5237   -5.6307 H         1 UNK         0.0770 
    107 H107       23.2707    2.0479   -8.3095 H         1 UNK         0.0814 
    108 H108       22.8520    3.2702   -7.1204 H         1 UNK         0.0814 
    109 H109       22.6680    1.5689   -6.7235 H         1 UNK         0.0814 
    110 H110       25.8758    2.1508   -8.9525 H         1 UNK         0.2983 
    111 H111       26.8813    4.9568   -9.0365 H         1 UNK         0.0947 
    112 H112       27.1631    4.4947  -11.4513 H         1 UNK         0.0806 
    113 H113       25.5323    4.0756  -10.9617 H         1 UNK         0.0806 
    114 H114       26.7286    2.8058  -11.2178 H         1 UNK         0.0806 
    115 H115       28.0604    2.7438   -7.3711 H         1 UNK         0.3000 
    116 H116       29.9777    2.0296   -6.5717 H         1 UNK         0.0850 
    117 H117       32.1222    3.1502   -7.0890 H         1 UNK         0.0810 
    118 H118       30.8521    4.3410   -6.8710 H         1 UNK         0.0810 
    119 H119       31.4230    3.9354   -8.4888 H         1 UNK         0.0810 
    120 H120       30.0841    2.1303  -10.1033 H         1 UNK         0.3040 
    121 H121       30.6788    0.7102  -11.7150 H         1 UNK         0.0766 
    122 H122       28.7891   -0.5965  -10.8065 H         1 UNK         0.0812 
    123 H123       29.8435   -1.4271   -9.6749 H         1 UNK         0.0812 
    124 H124       30.0212   -1.6887  -11.4086 H         1 UNK         0.0812 
    125 H125       31.7632   -1.9315   -9.8075 H         1 UNK         0.3205 
    126 H126       34.4035   -1.9669  -10.8272 H         1 UNK         0.0754 
    127 H127       34.7142   -3.8201   -9.1691 H         1 UNK         0.0769 
    128 H128       33.2066   -4.0019  -10.0495 H         1 UNK         0.0769 
    129 H129       33.1953   -3.3939   -8.3925 H         1 UNK         0.0769 
    130 H130       33.0908   -0.3266   -7.9802 H         1 UNK         0.2981 
    131 H131       35.7423    0.1805   -6.8320 H         1 UNK         0.0541 
    132 H132       34.1928    1.5822   -9.5467 H         1 UNK         0.3459 
    133 H133       34.9478    3.1499   -9.3978 H         1 UNK         0.3459 
    134 H134       33.0770    1.3493   -5.9572 H         1 UNK         0.0612 
    135 H135       34.5781    1.4066   -5.0708 H         1 UNK         0.0612 
    136 H136       31.3990    0.1961   -5.0359 H         1 UNK         0.0624 
    137 H137       31.9822    0.0752   -3.3946 H         1 UNK         0.0624 
@<TRIPOS>BOND
     1    1    2 1    
     2    1   72 1    
     3    1   73 1    
     4    1   74 1    
     5    2    3 2    
     6    2    4 am   BACKBONE|DICT|INTERRES
     7    4    5 1    
     8    4   75 1    
     9    5    6 1    
    10    5   35 1    
    11    5   76 1    
    12    6    7 1    
    13    6   77 1    
    14    6   78 1    
    15    7    8 1    
    16    8    9 1    
    17    8   79 1    
    18    8   80 1    
    19    9   10 ar   
    20    9   14 ar   
    21   10   11 ar   
    22   10   81 1    
    23   11   12 ar   
    24   11   71 1    
    25   12   13 ar   
    26   12   82 1    
    27   13   14 ar   
    28   13   15 1    
    29   14   83 1    
    30   15   16 1    
    31   15   84 1    
    32   15   85 1    
    33   16   17 1    
    34   17   18 1    
    35   17   86 1    
    36   17   87 1    
    37   18   19 1    
    38   18   37 1    
    39   18   88 1    
    40   19   20 am   BACKBONE|DICT|INTERRES
    41   19   89 1    
    42   20   21 2    
    43   20   22 1    
    44   22   23 1    
    45   22   24 1    
    46   22   90 1    
    47   23   91 1    
    48   23   92 1    
    49   23   93 1    
    50   24   25 am   BACKBONE|DICT|INTERRES
    51   24   94 1    
    52   25   26 2    
    53   25   27 1    
    54   27   28 1    
    55   27   29 1    
    56   27   95 1    
    57   28   96 1    
    58   28   97 1    
    59   28   98 1    
    60   29   30 am   BACKBONE|DICT|INTERRES
    61   29   99 1    
    62   30   31 2    
    63   30   32 1    
    64   32   33 1    
    65   32   34 1    
    66   32  100 1    
    67   33  101 1    
    68   33  102 1    
    69   33  103 1    
    70   34   35 am   BACKBONE|DICT|INTERRES
    71   34  104 1    
    72   35   36 2    
    73   37   38 2    
    74   37   39 am   BACKBONE|DICT|INTERRES
    75   39   40 1    
    76   39  105 1    
    77   40   41 1    
    78   40   42 1    
    79   40  106 1    
    80   41  107 1    
    81   41  108 1    
    82   41  109 1    
    83   42   43 2    
    84   42   44 am   BACKBONE|DICT|INTERRES
    85   44   45 1    
    86   44  110 1    
    87   45   46 1    
    88   45   47 1    
    89   45  111 1    
    90   46  112 1    
    91   46  113 1    
    92   46  114 1    
    93   47   48 2    
    94   47   49 am   BACKBONE|DICT|INTERRES
    95   49   50 1    
    96   49  115 1    
    97   50   51 1    
    98   50   52 1    
    99   50  116 1    
   100   51  117 1    
   101   51  118 1    
   102   51  119 1    
   103   52   53 2    
   104   52   54 am   BACKBONE|DICT|INTERRES
   105   54   55 1    
   106   54  120 1    
   107   55   56 1    
   108   55   57 1    
   109   55  121 1    
   110   56  122 1    
   111   56  123 1    
   112   56  124 1    
   113   57   58 2    
   114   57   59 am   BACKBONE|DICT|INTERRES
   115   59   60 1    
   116   59  125 1    
   117   60   61 1    
   118   60   62 1    
   119   60  126 1    
   120   61  127 1    
   121   61  128 1    
   122   61  129 1    
   123   62   63 2    
   124   62   64 am   BACKBONE|DICT|INTERRES
   125   64   65 1    
   126   64  130 1    
   127   65   66 1    
   128   65   69 1    
   129   65  131 1    
   130   66   67 am   BACKBONE|DICT|INTERRES
   131   66   68 2    
   132   67  132 1    
   133   67  133 1    
   134   69   70 1    
   135   69  134 1    
   136   69  135 1    
   137   70   71 1    
   138   71  136 1    
   139   71  137 1    
@<TRIPOS>SUBSTRUCTURE
     1 UNK         1 GROUP             0       ****    0 ROOT    
