@<TRIPOS>MOLECULE
3R137
137   139    1
SMALL
USER_CHARGES


@<TRIPOS>ATOM
      1 CA         31.0134    1.5021   -2.8627 C.3       0 UNK        -0.2020 
      2 C          30.0555    0.3215   -2.8241 C.2       0 UNK         0.4855 
      3 O          29.2488    0.1677   -3.7364 O.2       0 UNK        -0.5197 
      4 N          30.1434   -0.5113   -1.7783 N.am      1 UNK        -0.4892 
      5 CA         29.3043   -1.6970   -1.5673 C.3       1 UNK         0.0835 
      6 C6         29.8555   -2.5461   -0.3927 C.3       12 UNK        -0.0855 
      7 S7         29.1526   -4.2305   -0.3227 S.3       12 UNK        -0.2931 
      8 C8         30.5550   -5.2600   -0.8685 C.3       12 UNK         0.0378 
      9 C9         30.9495   -5.0217   -2.3222 C.ar      12 UNK        -0.0802 
     10 C10        32.2899   -4.8108   -2.6567 C.ar      12 UNK        -0.0944 
     11 C11        32.6789   -4.6534   -3.9905 C.ar      12 UNK        -0.0787 
     12 C12        31.7016   -4.6772   -4.9941 C.ar      12 UNK        -0.0862 
     13 C13        30.3535   -4.8745   -4.6768 C.ar      12 UNK        -0.0733 
     14 C14        29.9909   -5.0685   -3.3389 C.ar      12 UNK        -0.0832 
     15 C15        29.3147   -4.9469   -5.7942 C.3       12 UNK         0.0240 
     16 S16        27.7247   -4.1559   -5.3745 S.3       12 UNK        -0.2522 
     17 C17        28.1102   -2.3841   -5.5746 C.3       12 UNK        -0.0967 
     18 CA         27.2397   -1.7195   -6.6706 C.3       5 UNK         0.0660 
     19 N          25.8068   -1.8740   -6.4101 N.am      5 UNK        -0.4015 
     20 C          24.8602   -2.0187   -7.3457 C.2       4 UNK         0.4946 
     21 O          25.0951   -2.1137   -8.5502 O.2       4 UNK        -0.5353 
     22 CA         23.3953   -2.0821   -6.8689 C.3       4 UNK         0.0277 
     23 CB         22.9112   -3.5410   -6.8261 C.3       4 UNK        -0.1981 
     24 N          23.1694   -1.4660   -5.5581 N.am      4 UNK        -0.4209 
     25 C          23.2322   -0.1499   -5.3114 C.2       3 UNK         0.4942 
     26 O          23.4450    0.6990   -6.1769 O.2       3 UNK        -0.5208 
     27 CA         23.0928    0.2848   -3.8381 C.3       3 UNK         0.0250 
     28 CB         21.6125    0.4822   -3.4749 C.3       3 UNK        -0.1990 
     29 N          23.7196   -0.6296   -2.8697 N.am      3 UNK        -0.4232 
     30 C          25.0008   -1.0239   -2.9059 C.2       2 UNK         0.4993 
     31 O          25.7808   -0.6855   -3.7960 O.2       2 UNK        -0.5286 
     32 CA         25.4636   -2.0095   -1.8202 C.3       2 UNK         0.0209 
     33 CB         24.8076   -3.3858   -2.0297 C.3       2 UNK        -0.1931 
     34 N          26.9173   -2.1903   -1.8443 N.am      2 UNK        -0.4546 
     35 C          27.8160   -1.3240   -1.3585 C.2       1 UNK         0.5154 
     36 O          27.5153   -0.3010   -0.7357 O.2       1 UNK        -0.5181 
     37 C          27.5711   -0.2227   -6.8160 C.2       5 UNK         0.5014 
     38 O          28.3211    0.1472   -7.7188 O.2       5 UNK        -0.5248 
     39 N          26.9718    0.6180   -5.9578 N.am      6 UNK        -0.4434 
     40 CA         27.0872    2.0779   -5.9747 C.3       6 UNK         0.0363 
     41 CB         26.3470    2.6667   -4.7653 C.3       6 UNK        -0.1936 
     42 C          26.5816    2.7078   -7.2833 C.2       6 UNK         0.5081 
     43 O          27.1552    3.6999   -7.7340 O.2       6 UNK        -0.5248 
     44 N          25.5626    2.0966   -7.9042 N.am      7 UNK        -0.4718 
     45 CA         25.1406    2.3576   -9.2812 C.3       7 UNK         0.0273 
     46 CB         23.8873    1.5209   -9.5894 C.3       7 UNK        -0.1935 
     47 C          26.2862    2.0409  -10.2633 C.2       7 UNK         0.5018 
     48 O          26.6174    0.8699  -10.4505 O.2       7 UNK        -0.5186 
     49 N          26.8892    3.0998  -10.8228 N.am      8 UNK        -0.4240 
     50 CA         28.1123    3.1110  -11.6411 C.3       8 UNK         0.0235 
     51 CB         27.9970    2.1957  -12.8802 C.3       8 UNK        -0.2000 
     52 C          29.4134    2.8750  -10.8408 C.2       8 UNK         0.4941 
     53 O          30.4591    2.6631  -11.4568 O.2       8 UNK        -0.5273 
     54 N          29.3427    2.9809   -9.5039 N.am      9 UNK        -0.4262 
     55 CA         30.4453    3.0021   -8.5347 C.3       9 UNK         0.0264 
     56 CB         31.1665    4.3649   -8.5971 C.3       9 UNK        -0.1955 
     57 C          31.4202    1.8114   -8.6276 C.2       9 UNK         0.5031 
     58 O          32.6383    2.0141   -8.6267 O.2       9 UNK        -0.5390 
     59 N          30.8839    0.5842   -8.6643 N.am      10 UNK        -0.4204 
     60 CA         31.6651   -0.6499   -8.5644 C.3       10 UNK         0.0237 
     61 CB         30.7822   -1.8634   -8.9026 C.3       10 UNK        -0.1985 
     62 C          32.2553   -0.7596   -7.1504 C.2       10 UNK         0.4970 
     63 O          31.4951   -0.8503   -6.1863 O.2       10 UNK        -0.4914 
     64 N          33.5888   -0.6891   -7.0636 N.am      11 UNK        -0.4285 
     65 CA         34.3620   -0.5708   -5.8143 C.3       11 UNK         0.1007 
     66 C          34.1962    0.8053   -5.0979 C.2       11 UNK         0.5703 
     67 N          33.7309    1.8520   -5.7727 N.am      11 UNK        -0.7361 
     68 O          34.5249    0.9424   -3.9218 O.2       11 UNK        -0.4986 
     69 C69        34.1861   -1.7821   -4.8517 C.3       12 UNK        -0.0947 
     70 S70        34.5560   -3.3703   -5.6637 S.3       12 UNK        -0.2240 
     71 C71        34.1659   -4.5400   -4.3236 C.3       12 UNK         0.0194 
     72 H72        30.4791    2.4266   -2.6460 H         1 UNK         0.0906 
     73 H73        31.8251    1.3942   -2.1434 H         1 UNK         0.0906 
     74 H74        31.4538    1.5883   -3.8557 H         1 UNK         0.0906 
     75 H75        30.8024   -0.3055   -1.0415 H         1 UNK         0.3140 
     76 H76        29.3787   -2.2882   -2.4832 H         1 UNK         0.1085 
     77 H77        30.9406   -2.6319   -0.4740 H         1 UNK         0.0836 
     78 H78        29.6701   -2.0507    0.5626 H         1 UNK         0.0836 
     79 H79        31.3997   -5.0873   -0.1996 H         1 UNK         0.0731 
     80 H80        30.2825   -6.3097   -0.7516 H         1 UNK         0.0731 
     81 H81        33.0400   -4.8044   -1.8775 H         1 UNK         0.1312 
     82 H82        31.9943   -4.5661   -6.0290 H         1 UNK         0.1406 
     83 H83        28.9583   -5.2628   -3.0839 H         1 UNK         0.1631 
     84 H84        29.6992   -4.5012   -6.7133 H         1 UNK         0.0717 
     85 H85        29.1275   -5.9980   -6.0168 H         1 UNK         0.0717 
     86 H86        27.9519   -1.9004   -4.6112 H         1 UNK         0.0934 
     87 H87        29.1715   -2.2576   -5.7973 H         1 UNK         0.0934 
     88 H88        27.4816   -2.2000   -7.6212 H         1 UNK         0.0739 
     89 H89        25.5309   -1.7483   -5.4432 H         1 UNK         0.3093 
     90 H90        22.7925   -1.5423   -7.6028 H         1 UNK         0.0818 
     91 H91        21.8537   -3.6023   -6.5683 H         1 UNK         0.0819 
     92 H92        23.0335   -4.0208   -7.7983 H         1 UNK         0.0819 
     93 H93        23.4712   -4.1315   -6.0996 H         1 UNK         0.0819 
     94 H94        22.9864   -2.0893   -4.7853 H         1 UNK         0.3041 
     95 H95        23.5943    1.2485   -3.7369 H         1 UNK         0.0784 
     96 H96        21.1296    1.1729   -4.1680 H         1 UNK         0.0793 
     97 H97        21.0576   -0.4562   -3.5107 H         1 UNK         0.0793 
     98 H98        21.5009    0.9013   -2.4747 H         1 UNK         0.0793 
     99 H99        23.1308   -0.9594   -2.1179 H         1 UNK         0.3024 
    100 H100       25.1722   -1.6117   -0.8454 H         1 UNK         0.1171 
    101 H101       25.1349   -4.0983   -1.2720 H         1 UNK         0.0786 
    102 H102       23.7209   -3.3255   -1.9609 H         1 UNK         0.0786 
    103 H103       25.0509   -3.8047   -3.0076 H         1 UNK         0.0786 
    104 H104       27.2539   -3.0047   -2.3364 H         1 UNK         0.2977 
    105 H105       26.4471    0.2135   -5.1831 H         1 UNK         0.3127 
    106 H106       28.1480    2.3163   -5.8765 H         1 UNK         0.0770 
    107 H107       25.2736    2.4907   -4.8293 H         1 UNK         0.0814 
    108 H108       26.4980    3.7452   -4.7048 H         1 UNK         0.0814 
    109 H109       26.7060    2.2332   -3.8311 H         1 UNK         0.0814 
    110 H110       25.1155    1.3189   -7.4326 H         1 UNK         0.2983 
    111 H111       24.8751    3.4138   -9.3621 H         1 UNK         0.0947 
    112 H112       23.5421    1.6958  -10.6092 H         1 UNK         0.0806 
    113 H113       23.0662    1.7750   -8.9186 H         1 UNK         0.0806 
    114 H114       24.0807    0.4520   -9.4881 H         1 UNK         0.0806 
    115 H115       26.5399    4.0163  -10.5752 H         1 UNK         0.3000 
    116 H116       28.1928    4.1333  -12.0137 H         1 UNK         0.0850 
    117 H117       27.0681    2.3727  -13.4221 H         1 UNK         0.0810 
    118 H118       28.0362    1.1397  -12.6122 H         1 UNK         0.0810 
    119 H119       28.8164    2.3785  -13.5764 H         1 UNK         0.0810 
    120 H120       28.4287    3.1523   -9.0938 H         1 UNK         0.3040 
    121 H121       29.9803    2.9251   -7.5509 H         1 UNK         0.0766 
    122 H122       30.4676    5.1899   -8.4593 H         1 UNK         0.0812 
    123 H123       31.6722    4.5082   -9.5527 H         1 UNK         0.0812 
    124 H124       31.9202    4.4474   -7.8129 H         1 UNK         0.0812 
    125 H125       29.8765    0.4897   -8.5245 H         1 UNK         0.3205 
    126 H126       32.4733   -0.6045   -9.2976 H         1 UNK         0.0754 
    127 H127       31.3651   -2.7849   -8.8808 H         1 UNK         0.0769 
    128 H128       30.3486   -1.7736   -9.8987 H         1 UNK         0.0769 
    129 H129       29.9645   -1.9810   -8.1918 H         1 UNK         0.0769 
    130 H130       34.1241   -0.5847   -7.9131 H         1 UNK         0.2981 
    131 H131       35.4053   -0.5754   -6.1313 H         1 UNK         0.0541 
    132 H132       33.4707    1.7726   -6.7490 H         1 UNK         0.3459 
    133 H133       33.6522    2.7392   -5.3031 H         1 UNK         0.3459 
    134 H134       33.1744   -1.8146   -4.4447 H         1 UNK         0.0612 
    135 H135       34.8558   -1.6888   -3.9951 H         1 UNK         0.0612 
    136 H136       34.7382   -4.2534   -3.4398 H         1 UNK         0.0624 
    137 H137       34.5254   -5.5273   -4.6157 H         1 UNK         0.0624 
@<TRIPOS>BOND
     1    1    2 1    
     2    1   72 1    
     3    1   73 1    
     4    1   74 1    
     5    2    3 2    
     6    2    4 am   BACKBONE|DICT|INTERRES
     7    4    5 1    
     8    4   75 1    
     9    5    6 1    
    10    5   35 1    
    11    5   76 1    
    12    6    7 1    
    13    6   77 1    
    14    6   78 1    
    15    7    8 1    
    16    8    9 1    
    17    8   79 1    
    18    8   80 1    
    19    9   10 ar   
    20    9   14 ar   
    21   10   11 ar   
    22   10   81 1    
    23   11   12 ar   
    24   11   71 1    
    25   12   13 ar   
    26   12   82 1    
    27   13   14 ar   
    28   13   15 1    
    29   14   83 1    
    30   15   16 1    
    31   15   84 1    
    32   15   85 1    
    33   16   17 1    
    34   17   18 1    
    35   17   86 1    
    36   17   87 1    
    37   18   19 1    
    38   18   37 1    
    39   18   88 1    
    40   19   20 am   BACKBONE|DICT|INTERRES
    41   19   89 1    
    42   20   21 2    
    43   20   22 1    
    44   22   23 1    
    45   22   24 1    
    46   22   90 1    
    47   23   91 1    
    48   23   92 1    
    49   23   93 1    
    50   24   25 am   BACKBONE|DICT|INTERRES
    51   24   94 1    
    52   25   26 2    
    53   25   27 1    
    54   27   28 1    
    55   27   29 1    
    56   27   95 1    
    57   28   96 1    
    58   28   97 1    
    59   28   98 1    
    60   29   30 am   BACKBONE|DICT|INTERRES
    61   29   99 1    
    62   30   31 2    
    63   30   32 1    
    64   32   33 1    
    65   32   34 1    
    66   32  100 1    
    67   33  101 1    
    68   33  102 1    
    69   33  103 1    
    70   34   35 am   BACKBONE|DICT|INTERRES
    71   34  104 1    
    72   35   36 2    
    73   37   38 2    
    74   37   39 am   BACKBONE|DICT|INTERRES
    75   39   40 1    
    76   39  105 1    
    77   40   41 1    
    78   40   42 1    
    79   40  106 1    
    80   41  107 1    
    81   41  108 1    
    82   41  109 1    
    83   42   43 2    
    84   42   44 am   BACKBONE|DICT|INTERRES
    85   44   45 1    
    86   44  110 1    
    87   45   46 1    
    88   45   47 1    
    89   45  111 1    
    90   46  112 1    
    91   46  113 1    
    92   46  114 1    
    93   47   48 2    
    94   47   49 am   BACKBONE|DICT|INTERRES
    95   49   50 1    
    96   49  115 1    
    97   50   51 1    
    98   50   52 1    
    99   50  116 1    
   100   51  117 1    
   101   51  118 1    
   102   51  119 1    
   103   52   53 2    
   104   52   54 am   BACKBONE|DICT|INTERRES
   105   54   55 1    
   106   54  120 1    
   107   55   56 1    
   108   55   57 1    
   109   55  121 1    
   110   56  122 1    
   111   56  123 1    
   112   56  124 1    
   113   57   58 2    
   114   57   59 am   BACKBONE|DICT|INTERRES
   115   59   60 1    
   116   59  125 1    
   117   60   61 1    
   118   60   62 1    
   119   60  126 1    
   120   61  127 1    
   121   61  128 1    
   122   61  129 1    
   123   62   63 2    
   124   62   64 am   BACKBONE|DICT|INTERRES
   125   64   65 1    
   126   64  130 1    
   127   65   66 1    
   128   65   69 1    
   129   65  131 1    
   130   66   67 am   BACKBONE|DICT|INTERRES
   131   66   68 2    
   132   67  132 1    
   133   67  133 1    
   134   69   70 1    
   135   69  134 1    
   136   69  135 1    
   137   70   71 1    
   138   71  136 1    
   139   71  137 1    
@<TRIPOS>SUBSTRUCTURE
     1 UNK         1 GROUP             0       ****    0 ROOT    
