@<TRIPOS>MOLECULE
3R137
137   139    1
SMALL
USER_CHARGES


@<TRIPOS>ATOM
      1 CA         25.2655   -8.6046   -2.1677 C.3       0 UNK        -0.2020 
      2 C          25.2513   -7.5541   -1.0676 C.2       0 UNK         0.4855 
      3 O          24.2791   -7.4646   -0.3177 O.2       0 UNK        -0.5197 
      4 N          26.3208   -6.7548   -0.9663 N.am      1 UNK        -0.4892 
      5 CA         26.4767   -5.6767    0.0201 C.3       1 UNK         0.0835 
      6 C6         27.9733   -5.3692    0.2910 C.3       12 UNK        -0.0855 
      7 S7         28.9253   -4.8814   -1.1932 S.3       12 UNK        -0.2931 
      8 C8         29.1923   -3.1046   -0.8541 C.3       12 UNK         0.0378 
      9 C9         29.8844   -2.2991   -1.9584 C.ar      12 UNK        -0.0802 
     10 C10        30.4114   -2.8791   -3.1223 C.ar      12 UNK        -0.0944 
     11 C11        31.0326   -2.0903   -4.0953 C.ar      12 UNK        -0.0787 
     12 C12        31.1308   -0.7119   -3.8994 C.ar      12 UNK        -0.0862 
     13 C13        30.6279   -0.1151   -2.7414 C.ar      12 UNK        -0.0733 
     14 C14        29.9988   -0.9150   -1.7827 C.ar      12 UNK        -0.0832 
     15 C15        30.8104    1.3786   -2.4953 C.3       12 UNK         0.0240 
     16 S16        29.6745    2.4098   -3.4784 S.3       12 UNK        -0.2522 
     17 C17        30.5779    2.5633   -5.0664 C.3       12 UNK        -0.0967 
     18 CA         29.7639    2.1000   -6.3038 C.3       5 UNK         0.0660 
     19 N          29.0293    0.8560   -6.0553 N.am      5 UNK        -0.4015 
     20 C          28.3545    0.1457   -6.9668 C.2       4 UNK         0.4946 
     21 O          28.4195    0.3585   -8.1767 O.2       4 UNK        -0.5353 
     22 CA         27.3837   -0.9313   -6.4483 C.3       4 UNK         0.0277 
     23 CB         27.9442   -2.3455   -6.6403 C.3       4 UNK        -0.1981 
     24 N          26.9891   -0.7503   -5.0486 N.am      4 UNK        -0.4209 
     25 C          26.2976    0.2877   -4.5643 C.2       3 UNK         0.4942 
     26 O          25.9126    1.2234   -5.2687 O.2       3 UNK        -0.5208 
     27 CA         26.0210    0.2843   -3.0477 C.3       3 UNK         0.0250 
     28 CB         25.3931    1.6064   -2.5683 C.3       3 UNK        -0.1990 
     29 N          25.1677   -0.8332   -2.6277 N.am      3 UNK        -0.4232 
     30 C          25.5451   -2.1176   -2.5770 C.2       2 UNK         0.4993 
     31 O          26.6613   -2.5128   -2.9202 O.2       2 UNK        -0.5286 
     32 CA         24.4911   -3.1343   -2.1126 C.3       2 UNK         0.0209 
     33 CB         23.6013   -3.5596   -3.2926 C.3       2 UNK        -0.1931 
     34 N          25.1380   -4.3235   -1.5565 N.am      2 UNK        -0.4546 
     35 C          25.6753   -4.4005   -0.3310 C.2       1 UNK         0.5154 
     36 O          25.5616   -3.5098    0.5136 O.2       1 UNK        -0.5181 
     37 C          28.8673    3.2437   -6.8243 C.2       5 UNK         0.5014 
     38 O          29.3529    4.0728   -7.5940 O.2       5 UNK        -0.5248 
     39 N          27.5933    3.2767   -6.4126 N.am      6 UNK        -0.4434 
     40 CA         26.6046    4.2421   -6.8863 C.3       6 UNK         0.0363 
     41 CB         25.6958    4.6621   -5.7186 C.3       6 UNK        -0.1936 
     42 C          25.7760    3.6504   -8.0337 C.2       6 UNK         0.5081 
     43 O          25.5434    4.3392   -9.0269 O.2       6 UNK        -0.5248 
     44 N          25.3327    2.3949   -7.8749 N.am      7 UNK        -0.4718 
     45 CA         24.4050    1.7372   -8.7980 C.3       7 UNK         0.0273 
     46 CB         23.7425    0.5412   -8.0954 C.3       7 UNK        -0.1935 
     47 C          25.0333    1.3034  -10.1337 C.2       7 UNK         0.5018 
     48 O          24.3406    1.3528  -11.1513 O.2       7 UNK        -0.5186 
     49 N          26.3011    0.8678  -10.1157 N.am      8 UNK        -0.4240 
     50 CA         26.9900    0.2907  -11.2774 C.3       8 UNK         0.0235 
     51 CB         27.1402   -1.2253  -11.0492 C.3       8 UNK        -0.2000 
     52 C          28.3610    0.9281  -11.5625 C.2       8 UNK         0.4941 
     53 O          28.9704    0.5781  -12.5740 O.2       8 UNK        -0.5273 
     54 N          28.8383    1.8143  -10.6739 N.am      9 UNK        -0.4262 
     55 CA         30.1935    2.3848  -10.6330 C.3       9 UNK         0.0264 
     56 CB         30.4590    3.2908  -11.8547 C.3       9 UNK        -0.1955 
     57 C          31.2877    1.3154  -10.4196 C.2       9 UNK         0.5031 
     58 O          32.3993    1.4593  -10.9336 O.2       9 UNK        -0.5390 
     59 N          30.9488    0.2539   -9.6761 N.am      10 UNK        -0.4204 
     60 CA         31.8276   -0.8774   -9.3798 C.3       10 UNK         0.0237 
     61 CB         30.9518   -2.1135   -9.1204 C.3       10 UNK        -0.1985 
     62 C          32.7512   -0.5937   -8.1823 C.2       10 UNK         0.4970 
     63 O          32.5192    0.3543   -7.4296 O.2       10 UNK        -0.4914 
     64 N          33.7640   -1.4552   -8.0154 N.am      11 UNK        -0.4285 
     65 CA         34.7837   -1.4150   -6.9474 C.3       11 UNK         0.1007 
     66 C          35.7641   -0.2024   -7.0277 C.2       11 UNK         0.5703 
     67 N          35.8194    0.5374   -8.1292 N.am      11 UNK        -0.7361 
     68 O          36.5193    0.0532   -6.0924 O.2       11 UNK        -0.4986 
     69 C69        34.1966   -1.6108   -5.5160 C.3       12 UNK        -0.0947 
     70 S70        33.3143   -3.1951   -5.2875 S.3       12 UNK        -0.2240 
     71 C71        31.5583   -2.7190   -5.3788 C.3       12 UNK         0.0194 
     72 H72        24.4258   -8.4503   -2.8449 H         1 UNK         0.0906 
     73 H73        26.1842   -8.5705   -2.7532 H         1 UNK         0.0906 
     74 H74        25.1761   -9.6010   -1.7358 H         1 UNK         0.0906 
     75 H75        27.0963   -6.8624   -1.6068 H         1 UNK         0.3140 
     76 H76        26.0534   -6.0319    0.9627 H         1 UNK         0.1085 
     77 H77        28.0729   -4.6065    1.0660 H         1 UNK         0.0836 
     78 H78        28.4501   -6.2584    0.7066 H         1 UNK         0.0836 
     79 H79        28.2237   -2.6465   -0.6483 H         1 UNK         0.0731 
     80 H80        29.7804   -3.0135    0.0602 H         1 UNK         0.0731 
     81 H81        30.3389   -3.9440   -3.2878 H         1 UNK         0.1312 
     82 H82        31.6032   -0.1067   -4.6558 H         1 UNK         0.1406 
     83 H83        29.6069   -0.4595   -0.8830 H         1 UNK         0.1631 
     84 H84        31.8438    1.6651   -2.6959 H         1 UNK         0.0717 
     85 H85        30.6427    1.6047   -1.4412 H         1 UNK         0.0717 
     86 H86        30.9032    3.6005   -5.1742 H         1 UNK         0.0934 
     87 H87        31.5102    2.0033   -5.0212 H         1 UNK         0.0934 
     88 H88        30.4715    1.8934   -7.1079 H         1 UNK         0.0739 
     89 H89        28.9273    0.6043   -5.0824 H         1 UNK         0.3093 
     90 H90        26.4799   -0.8530   -7.0517 H         1 UNK         0.0818 
     91 H91        27.2324   -3.1007   -6.3063 H         1 UNK         0.0819 
     92 H92        28.1492   -2.5456   -7.6921 H         1 UNK         0.0819 
     93 H93        28.8665   -2.4906   -6.0815 H         1 UNK         0.0819 
     94 H94        27.2059   -1.5031   -4.3965 H         1 UNK         0.3041 
     95 H95        26.9880    0.1805   -2.5499 H         1 UNK         0.0784 
     96 H96        26.0256    2.4559   -2.8311 H         1 UNK         0.0793 
     97 H97        24.4148    1.7771   -3.0195 H         1 UNK         0.0793 
     98 H98        25.2721    1.6196   -1.4850 H         1 UNK         0.0793 
     99 H99        24.2191   -0.5960   -2.3744 H         1 UNK         0.3024 
    100 H100       23.8693   -2.6740   -1.3410 H         1 UNK         0.1171 
    101 H101       23.0728   -2.7039   -3.7150 H         1 UNK         0.0786 
    102 H102       22.8468   -4.2819   -2.9799 H         1 UNK         0.0786 
    103 H103       24.1849   -4.0106   -4.0965 H         1 UNK         0.0786 
    104 H104       25.3273   -5.0801   -2.1965 H         1 UNK         0.2977 
    105 H105       27.2432    2.5417   -5.8060 H         1 UNK         0.3127 
    106 H106       27.1019    5.1406   -7.2586 H         1 UNK         0.0770 
    107 H107       25.1484    3.8170   -5.2996 H         1 UNK         0.0814 
    108 H108       24.9590    5.3974   -6.0448 H         1 UNK         0.0814 
    109 H109       26.2731    5.1169   -4.9136 H         1 UNK         0.0814 
    110 H110       25.5355    1.9144   -7.0017 H         1 UNK         0.2983 
    111 H111       23.6153    2.4538   -9.0363 H         1 UNK         0.0947 
    112 H112       22.9803    0.0908   -8.7326 H         1 UNK         0.0806 
    113 H113       23.2521    0.8449   -7.1702 H         1 UNK         0.0806 
    114 H114       24.4612   -0.2395   -7.8524 H         1 UNK         0.0806 
    115 H115       26.8060    0.8320   -9.2362 H         1 UNK         0.3000 
    116 H116       26.3998    0.4397  -12.1839 H         1 UNK         0.0850 
    117 H117       27.6237   -1.7067  -11.9004 H         1 UNK         0.0810 
    118 H118       26.1697   -1.7038  -10.9173 H         1 UNK         0.0810 
    119 H119       27.7432   -1.4417  -10.1666 H         1 UNK         0.0810 
    120 H120       28.2678    2.0067   -9.8630 H         1 UNK         0.3040 
    121 H121       30.2308    3.0203   -9.7499 H         1 UNK         0.0766 
    122 H122       30.5233    2.7184  -12.7803 H         1 UNK         0.0812 
    123 H123       29.6730    4.0364  -11.9736 H         1 UNK         0.0812 
    124 H124       31.4007    3.8296  -11.7425 H         1 UNK         0.0812 
    125 H125       30.0317    0.2468   -9.2371 H         1 UNK         0.3205 
    126 H126       32.4539   -1.0756  -10.2524 H         1 UNK         0.0754 
    127 H127       31.5553   -2.9993   -8.9183 H         1 UNK         0.0769 
    128 H128       30.3237   -2.3409   -9.9822 H         1 UNK         0.0769 
    129 H129       30.2982   -1.9605   -8.2644 H         1 UNK         0.0769 
    130 H130       33.8770   -2.2032   -8.6840 H         1 UNK         0.2981 
    131 H131       35.4223   -2.2771   -7.1422 H         1 UNK         0.0541 
    132 H132       35.2119    0.3437   -8.9088 H         1 UNK         0.3459 
    133 H133       36.4665    1.3086   -8.1720 H         1 UNK         0.3459 
    134 H134       33.5600   -0.7721   -5.2483 H         1 UNK         0.0612 
    135 H135       35.0000   -1.6099   -4.7777 H         1 UNK         0.0612 
    136 H136       30.9781   -3.6122   -5.6147 H         1 UNK         0.0624 
    137 H137       31.4046   -2.0341   -6.2089 H         1 UNK         0.0624 
@<TRIPOS>BOND
     1    1    2 1    
     2    1   72 1    
     3    1   73 1    
     4    1   74 1    
     5    2    3 2    
     6    2    4 am   BACKBONE|DICT|INTERRES
     7    4    5 1    
     8    4   75 1    
     9    5    6 1    
    10    5   35 1    
    11    5   76 1    
    12    6    7 1    
    13    6   77 1    
    14    6   78 1    
    15    7    8 1    
    16    8    9 1    
    17    8   79 1    
    18    8   80 1    
    19    9   10 ar   
    20    9   14 ar   
    21   10   11 ar   
    22   10   81 1    
    23   11   12 ar   
    24   11   71 1    
    25   12   13 ar   
    26   12   82 1    
    27   13   14 ar   
    28   13   15 1    
    29   14   83 1    
    30   15   16 1    
    31   15   84 1    
    32   15   85 1    
    33   16   17 1    
    34   17   18 1    
    35   17   86 1    
    36   17   87 1    
    37   18   19 1    
    38   18   37 1    
    39   18   88 1    
    40   19   20 am   BACKBONE|DICT|INTERRES
    41   19   89 1    
    42   20   21 2    
    43   20   22 1    
    44   22   23 1    
    45   22   24 1    
    46   22   90 1    
    47   23   91 1    
    48   23   92 1    
    49   23   93 1    
    50   24   25 am   BACKBONE|DICT|INTERRES
    51   24   94 1    
    52   25   26 2    
    53   25   27 1    
    54   27   28 1    
    55   27   29 1    
    56   27   95 1    
    57   28   96 1    
    58   28   97 1    
    59   28   98 1    
    60   29   30 am   BACKBONE|DICT|INTERRES
    61   29   99 1    
    62   30   31 2    
    63   30   32 1    
    64   32   33 1    
    65   32   34 1    
    66   32  100 1    
    67   33  101 1    
    68   33  102 1    
    69   33  103 1    
    70   34   35 am   BACKBONE|DICT|INTERRES
    71   34  104 1    
    72   35   36 2    
    73   37   38 2    
    74   37   39 am   BACKBONE|DICT|INTERRES
    75   39   40 1    
    76   39  105 1    
    77   40   41 1    
    78   40   42 1    
    79   40  106 1    
    80   41  107 1    
    81   41  108 1    
    82   41  109 1    
    83   42   43 2    
    84   42   44 am   BACKBONE|DICT|INTERRES
    85   44   45 1    
    86   44  110 1    
    87   45   46 1    
    88   45   47 1    
    89   45  111 1    
    90   46  112 1    
    91   46  113 1    
    92   46  114 1    
    93   47   48 2    
    94   47   49 am   BACKBONE|DICT|INTERRES
    95   49   50 1    
    96   49  115 1    
    97   50   51 1    
    98   50   52 1    
    99   50  116 1    
   100   51  117 1    
   101   51  118 1    
   102   51  119 1    
   103   52   53 2    
   104   52   54 am   BACKBONE|DICT|INTERRES
   105   54   55 1    
   106   54  120 1    
   107   55   56 1    
   108   55   57 1    
   109   55  121 1    
   110   56  122 1    
   111   56  123 1    
   112   56  124 1    
   113   57   58 2    
   114   57   59 am   BACKBONE|DICT|INTERRES
   115   59   60 1    
   116   59  125 1    
   117   60   61 1    
   118   60   62 1    
   119   60  126 1    
   120   61  127 1    
   121   61  128 1    
   122   61  129 1    
   123   62   63 2    
   124   62   64 am   BACKBONE|DICT|INTERRES
   125   64   65 1    
   126   64  130 1    
   127   65   66 1    
   128   65   69 1    
   129   65  131 1    
   130   66   67 am   BACKBONE|DICT|INTERRES
   131   66   68 2    
   132   67  132 1    
   133   67  133 1    
   134   69   70 1    
   135   69  134 1    
   136   69  135 1    
   137   70   71 1    
   138   71  136 1    
   139   71  137 1    
@<TRIPOS>SUBSTRUCTURE
     1 UNK         1 GROUP             0       ****    0 ROOT    
