@<TRIPOS>MOLECULE
3R137
137   139    1
SMALL
USER_CHARGES


@<TRIPOS>ATOM
      1 CA         27.8207   -6.4965   -4.7722 C.3       0 UNK        -0.2020 
      2 C          27.4436   -5.6357   -3.5764 C.2       0 UNK         0.4855 
      3 O          26.3312   -5.7571   -3.0621 O.2       0 UNK        -0.5197 
      4 N          28.3594   -4.7716   -3.1247 N.am      1 UNK        -0.4892 
      5 CA         28.1396   -3.8347   -2.0194 C.3       1 UNK         0.0835 
      6 C6         29.4555   -3.1762   -1.5564 C.3       12 UNK        -0.0855 
      7 S7         30.7012   -4.3179   -0.8813 S.3       12 UNK        -0.2931 
      8 C8         31.8958   -3.1076   -0.2138 C.3       12 UNK         0.0378 
      9 C9         32.3140   -2.0908   -1.2694 C.ar      12 UNK        -0.0802 
     10 C10        33.2614   -2.4371   -2.2330 C.ar      12 UNK        -0.0944 
     11 C11        33.6027   -1.5423   -3.2511 C.ar      12 UNK        -0.0787 
     12 C12        32.9973   -0.2814   -3.2909 C.ar      12 UNK        -0.0862 
     13 C13        32.0531    0.0849   -2.3231 C.ar      12 UNK        -0.0733 
     14 C14        31.7248   -0.8221   -1.3103 C.ar      12 UNK        -0.0832 
     15 C15        31.4185    1.4726   -2.3329 C.3       12 UNK         0.0240 
     16 S16        30.6397    1.9111   -3.9213 S.3       12 UNK        -0.2522 
     17 C17        29.1119    0.9109   -3.9184 C.3       12 UNK        -0.0967 
     18 CA         28.4982    0.8541   -5.3400 C.3       5 UNK         0.0660 
     19 N          27.7614   -0.3825   -5.6017 N.am      5 UNK        -0.4015 
     20 C          27.4169   -0.7870   -6.8312 C.2       4 UNK         0.4946 
     21 O          27.7291   -0.1736   -7.8507 O.2       4 UNK        -0.5353 
     22 CA         26.5786   -2.0663   -6.9475 C.3       4 UNK         0.0277 
     23 CB         27.4700   -3.3150   -6.8786 C.3       4 UNK        -0.1981 
     24 N          25.5507   -2.1341   -5.9095 N.am      4 UNK        -0.4209 
     25 C          24.3886   -1.4690   -5.9556 C.2       3 UNK         0.4942 
     26 O          24.0462   -0.7544   -6.8965 O.2       3 UNK        -0.5208 
     27 CA         23.4530   -1.6093   -4.7417 C.3       3 UNK         0.0250 
     28 CB         22.5473   -2.8411   -4.8994 C.3       3 UNK        -0.1990 
     29 N          24.1598   -1.6838   -3.4600 N.am      3 UNK        -0.4232 
     30 C          24.8957   -0.6892   -2.9463 C.2       2 UNK         0.4993 
     31 O          25.0795    0.3912   -3.5048 O.2       2 UNK        -0.5286 
     32 CA         25.6000   -0.9662   -1.6095 C.3       2 UNK         0.0209 
     33 CB         24.6026   -0.8805   -0.4425 C.3       2 UNK        -0.1931 
     34 N          26.3415   -2.2335   -1.5345 N.am      2 UNK        -0.4546 
     35 C          27.1995   -2.6986   -2.4546 C.2       1 UNK         0.5154 
     36 O          27.3430   -2.2070   -3.5753 O.2       1 UNK        -0.5181 
     37 C          27.6686    2.1061   -5.7089 C.2       5 UNK         0.5014 
     38 O          28.2110    3.0296   -6.3191 O.2       5 UNK        -0.5248 
     39 N          26.3580    2.0889   -5.4148 N.am      6 UNK        -0.4434 
     40 CA         25.3992    3.1096   -5.8527 C.3       6 UNK         0.0363 
     41 CB         24.0363    2.8668   -5.1861 C.3       6 UNK        -0.1936 
     42 C          25.2363    3.1805   -7.3819 C.2       6 UNK         0.5081 
     43 O          25.0397    4.2730   -7.9155 O.2       6 UNK        -0.5248 
     44 N          25.3608    2.0386   -8.0728 N.am      7 UNK        -0.4718 
     45 CA         25.3288    1.9197   -9.5341 C.3       7 UNK         0.0273 
     46 CB         24.9158    0.4862   -9.9159 C.3       7 UNK        -0.1935 
     47 C          26.6634    2.3449  -10.1814 C.2       7 UNK         0.5018 
     48 O          27.2544    1.5767  -10.9418 O.2       7 UNK        -0.5186 
     49 N          27.1009    3.5730   -9.8694 N.am      8 UNK        -0.4240 
     50 CA         28.3020    4.2530  -10.3652 C.3       8 UNK         0.0235 
     51 CB         28.1478    4.5957  -11.8631 C.3       8 UNK        -0.2000 
     52 C          29.6100    3.4992  -10.0508 C.2       8 UNK         0.4941 
     53 O          30.4623    3.3618  -10.9309 O.2       8 UNK        -0.5273 
     54 N          29.7522    3.0512   -8.7931 N.am      9 UNK        -0.4262 
     55 CA         30.9325    2.3895   -8.2251 C.3       9 UNK         0.0264 
     56 CB         32.1237    3.3694   -8.1472 C.3       9 UNK        -0.1955 
     57 C          31.2888    1.0600   -8.9195 C.2       9 UNK         0.5031 
     58 O          32.4649    0.8136   -9.1956 O.2       9 UNK        -0.5390 
     59 N          30.2819    0.2092   -9.1753 N.am      10 UNK        -0.4204 
     60 CA         30.4741   -1.1150   -9.7803 C.3       10 UNK         0.0237 
     61 CB         29.1572   -1.6115  -10.4011 C.3       10 UNK        -0.1985 
     62 C          31.0564   -2.1568   -8.8055 C.2       10 UNK         0.4970 
     63 O          31.5187   -3.1991   -9.2718 O.2       10 UNK        -0.4914 
     64 N          31.0424   -1.8628   -7.4943 N.am      11 UNK        -0.4285 
     65 CA         31.6687   -2.6213   -6.3940 C.3       11 UNK         0.1007 
     66 C          30.9780   -3.9800   -6.0777 C.2       11 UNK         0.5703 
     67 N          30.7262   -4.8233   -7.0690 N.am      11 UNK        -0.7361 
     68 O          30.6360   -4.2541   -4.9298 O.2       11 UNK        -0.4986 
     69 C69        33.2066   -2.7434   -6.6033 C.3       12 UNK        -0.0947 
     70 S70        34.1485   -3.4362   -5.2052 S.3       12 UNK        -0.2240 
     71 C71        34.6448   -1.9438   -4.2849 C.3       12 UNK         0.0194 
     72 H72        27.1684   -6.2756   -5.6161 H         1 UNK         0.0906 
     73 H73        28.8511   -6.3298   -5.0832 H         1 UNK         0.0906 
     74 H74        27.7107   -7.5516   -4.5238 H         1 UNK         0.0906 
     75 H75        29.2421   -4.6653   -3.6199 H         1 UNK         0.3140 
     76 H76        27.6916   -4.3766   -1.1838 H         1 UNK         0.1085 
     77 H77        29.9094   -2.6471   -2.3980 H         1 UNK         0.0836 
     78 H78        29.2542   -2.4257   -0.7885 H         1 UNK         0.0836 
     79 H79        32.7737   -3.6387    0.1570 H         1 UNK         0.0731 
     80 H80        31.4557   -2.6049    0.6489 H         1 UNK         0.0731 
     81 H81        33.7172   -3.4177   -2.2053 H         1 UNK         0.1312 
     82 H82        33.2637    0.4204   -4.0695 H         1 UNK         0.1406 
     83 H83        30.9965   -0.5476   -0.5592 H         1 UNK         0.1631 
     84 H84        32.1964    2.2060   -2.1172 H         1 UNK         0.0717 
     85 H85        30.6766    1.5731   -1.5391 H         1 UNK         0.0717 
     86 H86        29.3765   -0.0937   -3.5827 H         1 UNK         0.0934 
     87 H87        28.4043    1.3020   -3.1847 H         1 UNK         0.0934 
     88 H88        29.3317    0.8206   -6.0410 H         1 UNK         0.0739 
     89 H89        27.5147   -0.9666   -4.8023 H         1 UNK         0.3093 
     90 H90        26.0910   -2.0565   -7.9246 H         1 UNK         0.0818 
     91 H91        26.8878   -4.2229   -7.0336 H         1 UNK         0.0819 
     92 H92        28.2385   -3.2910   -7.6516 H         1 UNK         0.0819 
     93 H93        27.9766   -3.4011   -5.9171 H         1 UNK         0.0819 
     94 H94        25.7975   -2.6221   -5.0578 H         1 UNK         0.3041 
     95 H95        22.8180   -0.7208   -4.7172 H         1 UNK         0.0784 
     96 H96        21.9942   -2.8003   -5.8390 H         1 UNK         0.0793 
     97 H97        23.1215   -3.7686   -4.8989 H         1 UNK         0.0793 
     98 H98        21.8128   -2.8993   -4.0959 H         1 UNK         0.0793 
     99 H99        24.0901   -2.5481   -2.9421 H         1 UNK         0.3024 
    100 H100       26.3349   -0.1688   -1.4782 H         1 UNK         0.1171 
    101 H101       24.0428    0.0556   -0.4736 H         1 UNK         0.0786 
    102 H102       25.1131   -0.9158    0.5201 H         1 UNK         0.0786 
    103 H103       23.8776   -1.6950   -0.4678 H         1 UNK         0.0786 
    104 H104       26.2948   -2.7128   -0.6465 H         1 UNK         0.2977 
    105 H105       25.9777    1.3245   -4.8589 H         1 UNK         0.3127 
    106 H106       25.7735    4.0794   -5.5185 H         1 UNK         0.0770 
    107 H107       23.6273    1.8909   -5.4516 H         1 UNK         0.0814 
    108 H108       23.3100    3.6208   -5.4924 H         1 UNK         0.0814 
    109 H109       24.1124    2.9140   -4.0997 H         1 UNK         0.0814 
    110 H110       25.5463    1.1848   -7.5634 H         1 UNK         0.2983 
    111 H111       24.5614    2.5940   -9.9207 H         1 UNK         0.0947 
    112 H112       24.8239    0.3801  -10.9975 H         1 UNK         0.0806 
    113 H113       23.9512    0.2219   -9.4827 H         1 UNK         0.0806 
    114 H114       25.6479   -0.2473   -9.5781 H         1 UNK         0.0806 
    115 H115       26.5295    4.0993   -9.2141 H         1 UNK         0.3000 
    116 H116       28.3630    5.1961   -9.8200 H         1 UNK         0.0850 
    117 H117       28.9823    5.2045  -12.2133 H         1 UNK         0.0810 
    118 H118       27.2354    5.1621  -12.0493 H         1 UNK         0.0810 
    119 H119       28.1182    3.6983  -12.4822 H         1 UNK         0.0810 
    120 H120       28.9910    3.1936   -8.1336 H         1 UNK         0.3040 
    121 H121       30.6777    2.1371   -7.1978 H         1 UNK         0.0766 
    122 H122       31.8508    4.2836   -7.6201 H         1 UNK         0.0812 
    123 H123       32.4877    3.6471   -9.1369 H         1 UNK         0.0812 
    124 H124       32.9603    2.9244   -7.6070 H         1 UNK         0.0812 
    125 H125       29.3304    0.4433   -8.9015 H         1 UNK         0.3205 
    126 H126       31.1940   -1.0072  -10.5945 H         1 UNK         0.0754 
    127 H127       29.3225   -2.5188  -10.9834 H         1 UNK         0.0769 
    128 H128       28.7299   -0.8680  -11.0745 H         1 UNK         0.0769 
    129 H129       28.4084   -1.8486   -9.6474 H         1 UNK         0.0769 
    130 H130       30.5967   -1.0010   -7.2221 H         1 UNK         0.2981 
    131 H131       31.5192   -1.9986   -5.5104 H         1 UNK         0.0541 
    132 H132       30.9991   -4.5636   -8.0107 H         1 UNK         0.3459 
    133 H133       30.2831   -5.7077   -6.8864 H         1 UNK         0.3459 
    134 H134       33.4194   -3.3768   -7.4653 H         1 UNK         0.0612 
    135 H135       33.6230   -1.7661   -6.8514 H         1 UNK         0.0612 
    136 H136       35.5812   -2.1544   -3.7668 H         1 UNK         0.0624 
    137 H137       34.8568   -1.1271   -4.9763 H         1 UNK         0.0624 
@<TRIPOS>BOND
     1    1    2 1    
     2    1   72 1    
     3    1   73 1    
     4    1   74 1    
     5    2    3 2    
     6    2    4 am   BACKBONE|DICT|INTERRES
     7    4    5 1    
     8    4   75 1    
     9    5    6 1    
    10    5   35 1    
    11    5   76 1    
    12    6    7 1    
    13    6   77 1    
    14    6   78 1    
    15    7    8 1    
    16    8    9 1    
    17    8   79 1    
    18    8   80 1    
    19    9   10 ar   
    20    9   14 ar   
    21   10   11 ar   
    22   10   81 1    
    23   11   12 ar   
    24   11   71 1    
    25   12   13 ar   
    26   12   82 1    
    27   13   14 ar   
    28   13   15 1    
    29   14   83 1    
    30   15   16 1    
    31   15   84 1    
    32   15   85 1    
    33   16   17 1    
    34   17   18 1    
    35   17   86 1    
    36   17   87 1    
    37   18   19 1    
    38   18   37 1    
    39   18   88 1    
    40   19   20 am   BACKBONE|DICT|INTERRES
    41   19   89 1    
    42   20   21 2    
    43   20   22 1    
    44   22   23 1    
    45   22   24 1    
    46   22   90 1    
    47   23   91 1    
    48   23   92 1    
    49   23   93 1    
    50   24   25 am   BACKBONE|DICT|INTERRES
    51   24   94 1    
    52   25   26 2    
    53   25   27 1    
    54   27   28 1    
    55   27   29 1    
    56   27   95 1    
    57   28   96 1    
    58   28   97 1    
    59   28   98 1    
    60   29   30 am   BACKBONE|DICT|INTERRES
    61   29   99 1    
    62   30   31 2    
    63   30   32 1    
    64   32   33 1    
    65   32   34 1    
    66   32  100 1    
    67   33  101 1    
    68   33  102 1    
    69   33  103 1    
    70   34   35 am   BACKBONE|DICT|INTERRES
    71   34  104 1    
    72   35   36 2    
    73   37   38 2    
    74   37   39 am   BACKBONE|DICT|INTERRES
    75   39   40 1    
    76   39  105 1    
    77   40   41 1    
    78   40   42 1    
    79   40  106 1    
    80   41  107 1    
    81   41  108 1    
    82   41  109 1    
    83   42   43 2    
    84   42   44 am   BACKBONE|DICT|INTERRES
    85   44   45 1    
    86   44  110 1    
    87   45   46 1    
    88   45   47 1    
    89   45  111 1    
    90   46  112 1    
    91   46  113 1    
    92   46  114 1    
    93   47   48 2    
    94   47   49 am   BACKBONE|DICT|INTERRES
    95   49   50 1    
    96   49  115 1    
    97   50   51 1    
    98   50   52 1    
    99   50  116 1    
   100   51  117 1    
   101   51  118 1    
   102   51  119 1    
   103   52   53 2    
   104   52   54 am   BACKBONE|DICT|INTERRES
   105   54   55 1    
   106   54  120 1    
   107   55   56 1    
   108   55   57 1    
   109   55  121 1    
   110   56  122 1    
   111   56  123 1    
   112   56  124 1    
   113   57   58 2    
   114   57   59 am   BACKBONE|DICT|INTERRES
   115   59   60 1    
   116   59  125 1    
   117   60   61 1    
   118   60   62 1    
   119   60  126 1    
   120   61  127 1    
   121   61  128 1    
   122   61  129 1    
   123   62   63 2    
   124   62   64 am   BACKBONE|DICT|INTERRES
   125   64   65 1    
   126   64  130 1    
   127   65   66 1    
   128   65   69 1    
   129   65  131 1    
   130   66   67 am   BACKBONE|DICT|INTERRES
   131   66   68 2    
   132   67  132 1    
   133   67  133 1    
   134   69   70 1    
   135   69  134 1    
   136   69  135 1    
   137   70   71 1    
   138   71  136 1    
   139   71  137 1    
@<TRIPOS>SUBSTRUCTURE
     1 UNK         1 GROUP             0       ****    0 ROOT    
