@<TRIPOS>MOLECULE
3R137
137   139    1
SMALL
USER_CHARGES


@<TRIPOS>ATOM
      1 CA         24.6012   -5.1000    1.0053 C.3       0 UNK        -0.2020 
      2 C          25.2091   -4.0285    0.1131 C.2       0 UNK         0.4855 
      3 O          24.5803   -3.6245   -0.8652 O.2       0 UNK        -0.5197 
      4 N          26.4158   -3.5558    0.4577 N.am      1 UNK        -0.4892 
      5 CA         27.2491   -2.5583   -0.2416 C.3       1 UNK         0.0835 
      6 C6         27.6247   -2.9473   -1.6983 C.3       12 UNK        -0.0855 
      7 S7         28.4906   -4.5511   -1.7826 S.3       12 UNK        -0.2931 
      8 C8         30.2179   -4.0354   -2.0637 C.3       12 UNK         0.0378 
      9 C9         30.5245   -3.6959   -3.5201 C.ar      12 UNK        -0.0802 
     10 C10        31.2377   -2.5342   -3.8360 C.ar      12 UNK        -0.0944 
     11 C11        31.5958   -2.2540   -5.1595 C.ar      12 UNK        -0.0787 
     12 C12        31.2305   -3.1476   -6.1711 C.ar      12 UNK        -0.0862 
     13 C13        30.5054   -4.3047   -5.8746 C.ar      12 UNK        -0.0733 
     14 C14        30.1609   -4.5743   -4.5469 C.ar      12 UNK        -0.0832 
     15 C15        30.1290   -5.2867   -6.9786 C.3       12 UNK         0.0240 
     16 S16        28.9706   -4.5860   -8.2004 S.3       12 UNK        -0.2522 
     17 C17        27.5025   -4.2215   -7.1764 C.3       12 UNK        -0.0967 
     18 CA         26.6851   -3.0031   -7.6892 C.3       5 UNK         0.0660 
     19 N          25.3801   -2.8608   -7.0311 N.am      5 UNK        -0.4015 
     20 C          25.1458   -2.6809   -5.7237 C.2       4 UNK         0.4946 
     21 O          26.0200   -2.6890   -4.8546 O.2       4 UNK        -0.5353 
     22 CA         23.6918   -2.3913   -5.3217 C.3       4 UNK         0.0277 
     23 CB         23.1397   -3.5178   -4.4329 C.3       4 UNK        -0.1981 
     24 N          23.5654   -1.1122   -4.6171 N.am      4 UNK        -0.4209 
     25 C          23.9471    0.0850   -5.0905 C.2       3 UNK         0.4942 
     26 O          24.4733    0.2519   -6.1913 O.2       3 UNK        -0.5208 
     27 CA         23.6864    1.3093   -4.1943 C.3       3 UNK         0.0250 
     28 CB         22.3455    1.9654   -4.5605 C.3       3 UNK        -0.1990 
     29 N          23.6955    0.9786   -2.7656 N.am      3 UNK        -0.4232 
     30 C          24.8154    0.7811   -2.0567 C.2       2 UNK         0.4993 
     31 O          25.9409    0.9602   -2.5206 O.2       2 UNK        -0.5286 
     32 CA         24.6731    0.2986   -0.6006 C.3       2 UNK         0.0209 
     33 CB         23.2152    0.1130   -0.1303 C.3       2 UNK        -0.1931 
     34 N          25.3799   -0.9717   -0.4498 N.am      2 UNK        -0.4546 
     35 C          26.6818   -1.1234   -0.1825 C.2       1 UNK         0.5154 
     36 O          27.4303   -0.1930    0.1216 O.2       1 UNK        -0.5181 
     37 C          27.4912   -1.6858   -7.6646 C.2       5 UNK         0.5014 
     38 O          27.8415   -1.1689   -8.7275 O.2       5 UNK        -0.5248 
     39 N          27.7605   -1.1650   -6.4617 N.am      6 UNK        -0.4434 
     40 CA         28.6421   -0.0335   -6.1830 C.3       6 UNK         0.0363 
     41 CB         28.6973    0.2109   -4.6702 C.3       6 UNK        -0.1936 
     42 C          28.3044    1.2640   -6.9320 C.2       6 UNK         0.5081 
     43 O          29.2333    1.9684   -7.3228 O.2       6 UNK        -0.5248 
     44 N          27.0146    1.5502   -7.1675 N.am      7 UNK        -0.4718 
     45 CA         26.5783    2.7280   -7.9299 C.3       7 UNK         0.0273 
     46 CB         25.0600    2.9150   -7.7846 C.3       7 UNK        -0.1935 
     47 C          26.9731    2.6866   -9.4185 C.2       7 UNK         0.5018 
     48 O          27.1063    3.7485  -10.0283 O.2       7 UNK        -0.5186 
     49 N          27.1553    1.4799   -9.9718 N.am      8 UNK        -0.4240 
     50 CA         27.6243    1.2597  -11.3393 C.3       8 UNK         0.0235 
     51 CB         26.8679    0.0698  -11.9541 C.3       8 UNK        -0.2000 
     52 C          29.1390    1.0112  -11.3689 C.2       8 UNK         0.4941 
     53 O          29.8266    1.5694  -12.2244 O.2       8 UNK        -0.5273 
     54 N          29.6279    0.1680  -10.4493 N.am      9 UNK        -0.4262 
     55 CA         31.0205   -0.2763  -10.3804 C.3       9 UNK         0.0264 
     56 CB         31.0951   -1.5289   -9.4984 C.3       9 UNK        -0.1955 
     57 C          32.0025    0.7889   -9.8678 C.2       9 UNK         0.5031 
     58 O          33.1731    0.7452  -10.2501 O.2       9 UNK        -0.5390 
     59 N          31.5360    1.6961   -8.9966 N.am      10 UNK        -0.4204 
     60 CA         32.2544    2.7964   -8.3365 C.3       10 UNK         0.0237 
     61 CB         32.8124    3.8042   -9.3609 C.3       10 UNK        -0.1985 
     62 C          33.3404    2.3640   -7.3329 C.2       10 UNK         0.4970 
     63 O          33.4061    2.9437   -6.2487 O.2       10 UNK        -0.4914 
     64 N          34.1741    1.3846   -7.7073 N.am      11 UNK        -0.4285 
     65 CA         35.3493    0.8947   -6.9625 C.3       11 UNK         0.1007 
     66 C          36.4856    1.9527   -6.7875 C.2       11 UNK         0.5703 
     67 N          36.5337    3.0092   -7.5912 N.am      11 UNK        -0.7361 
     68 O          37.3615    1.8028   -5.9384 O.2       11 UNK        -0.4986 
     69 C69        34.9730    0.1752   -5.6328 C.3       12 UNK        -0.0947 
     70 S70        34.1159   -1.4122   -5.9016 S.3       12 UNK        -0.2240 
     71 C71        32.3940   -0.9991   -5.4912 C.3       12 UNK         0.0194 
     72 H72        25.2575   -5.3637    1.8344 H         1 UNK         0.0906 
     73 H73        23.6550   -4.7514    1.4184 H         1 UNK         0.0906 
     74 H74        24.4082   -6.0025    0.4260 H         1 UNK         0.0906 
     75 H75        26.8437   -3.9264    1.2953 H         1 UNK         0.3140 
     76 H76        28.1812   -2.5235    0.3254 H         1 UNK         0.1085 
     77 H77        26.7316   -3.0105   -2.3215 H         1 UNK         0.0836 
     78 H78        28.2504   -2.1792   -2.1574 H         1 UNK         0.0836 
     79 H79        30.8739   -4.8525   -1.7610 H         1 UNK         0.0731 
     80 H80        30.4529   -3.1970   -1.4059 H         1 UNK         0.0731 
     81 H81        31.5352   -1.8563   -3.0476 H         1 UNK         0.1312 
     82 H82        31.5283   -2.9569   -7.1905 H         1 UNK         0.1406 
     83 H83        29.6203   -5.4797   -4.3059 H         1 UNK         0.1631 
     84 H84        29.6902   -6.1939   -6.5602 H         1 UNK         0.0717 
     85 H85        31.0364   -5.5989   -7.4972 H         1 UNK         0.0717 
     86 H86        26.8733   -5.1127   -7.1736 H         1 UNK         0.0934 
     87 H87        27.8058   -4.0706   -6.1401 H         1 UNK         0.0934 
     88 H88        26.4499   -3.1943   -8.7377 H         1 UNK         0.0739 
     89 H89        24.5943   -2.7970   -7.6630 H         1 UNK         0.3093 
     90 H90        23.0767   -2.3304   -6.2218 H         1 UNK         0.0818 
     91 H91        22.0919   -3.3524   -4.1820 H         1 UNK         0.0819 
     92 H92        23.2028   -4.4815   -4.9398 H         1 UNK         0.0819 
     93 H93        23.6995   -3.6048   -3.5003 H         1 UNK         0.0819 
     94 H94        23.1755   -1.1514   -3.6883 H         1 UNK         0.3041 
     95 H95        24.4800    2.0336   -4.3920 H         1 UNK         0.0784 
     96 H96        22.3234    2.2416   -5.6159 H         1 UNK         0.0793 
     97 H97        21.5031    1.2961   -4.3813 H         1 UNK         0.0793 
     98 H98        22.1800    2.8768   -3.9857 H         1 UNK         0.0793 
     99 H99        22.8015    0.8438   -2.3156 H         1 UNK         0.3024 
    100 H100       25.1424    1.0547    0.0331 H         1 UNK         0.1171 
    101 H101       22.6534    1.0459   -0.1943 H         1 UNK         0.0786 
    102 H102       22.6871   -0.6437   -0.7123 H         1 UNK         0.0786 
    103 H103       23.1833   -0.2006    0.9135 H         1 UNK         0.0786 
    104 H104       24.8725   -1.8189   -0.6983 H         1 UNK         0.2977 
    105 H105       27.3545   -1.6428   -5.6594 H         1 UNK         0.3127 
    106 H106       29.6365   -0.3357   -6.5102 H         1 UNK         0.0770 
    107 H107       27.7217    0.5015   -4.2837 H         1 UNK         0.0814 
    108 H108       29.3994    1.0092   -4.4262 H         1 UNK         0.0814 
    109 H109       29.0180   -0.6810   -4.1328 H         1 UNK         0.0814 
    110 H110       26.2882    0.9282   -6.8233 H         1 UNK         0.2983 
    111 H111       27.0673    3.6025   -7.4948 H         1 UNK         0.0947 
    112 H112       24.7240    3.8091   -8.3115 H         1 UNK         0.0806 
    113 H113       24.7720    3.0299   -6.7399 H         1 UNK         0.0806 
    114 H114       24.5088    2.0686   -8.1959 H         1 UNK         0.0806 
    115 H115       27.0720    0.6599   -9.3812 H         1 UNK         0.3000 
    116 H116       27.4174    2.1394  -11.9530 H         1 UNK         0.0850 
    117 H117       27.1988   -0.1156  -12.9769 H         1 UNK         0.0810 
    118 H118       25.7953    0.2609  -11.9906 H         1 UNK         0.0810 
    119 H119       27.0240   -0.8499  -11.3887 H         1 UNK         0.0810 
    120 H120       28.9779   -0.2797   -9.8041 H         1 UNK         0.3040 
    121 H121       31.3381   -0.5520  -11.3883 H         1 UNK         0.0766 
    122 H122       30.7139   -1.3237   -8.4987 H         1 UNK         0.0812 
    123 H123       32.1219   -1.8839   -9.3986 H         1 UNK         0.0812 
    124 H124       30.5066   -2.3454   -9.9174 H         1 UNK         0.0812 
    125 H125       30.5687    1.6127   -8.6936 H         1 UNK         0.3205 
    126 H126       31.4969    3.3231   -7.7542 H         1 UNK         0.0754 
    127 H127       33.2523    4.6664   -8.8579 H         1 UNK         0.0769 
    128 H128       32.0242    4.1783  -10.0145 H         1 UNK         0.0769 
    129 H129       33.5876    3.3659   -9.9898 H         1 UNK         0.0769 
    130 H130       34.0380    0.9967   -8.6381 H         1 UNK         0.2981 
    131 H131       35.8010    0.1446   -7.6123 H         1 UNK         0.0541 
    132 H132       37.2777    3.6798   -7.4791 H         1 UNK         0.3459 
    133 H133       35.8390    3.1392   -8.3082 H         1 UNK         0.3459 
    134 H134       34.3848    0.8243   -4.9837 H         1 UNK         0.0612 
    135 H135       35.8690   -0.0731   -5.0622 H         1 UNK         0.0612 
    136 H136       31.9472   -0.4774   -6.3378 H         1 UNK         0.0624 
    137 H137       32.3694   -0.3052   -4.6499 H         1 UNK         0.0624 
@<TRIPOS>BOND
     1    1    2 1    
     2    1   72 1    
     3    1   73 1    
     4    1   74 1    
     5    2    3 2    
     6    2    4 am   BACKBONE|DICT|INTERRES
     7    4    5 1    
     8    4   75 1    
     9    5    6 1    
    10    5   35 1    
    11    5   76 1    
    12    6    7 1    
    13    6   77 1    
    14    6   78 1    
    15    7    8 1    
    16    8    9 1    
    17    8   79 1    
    18    8   80 1    
    19    9   10 ar   
    20    9   14 ar   
    21   10   11 ar   
    22   10   81 1    
    23   11   12 ar   
    24   11   71 1    
    25   12   13 ar   
    26   12   82 1    
    27   13   14 ar   
    28   13   15 1    
    29   14   83 1    
    30   15   16 1    
    31   15   84 1    
    32   15   85 1    
    33   16   17 1    
    34   17   18 1    
    35   17   86 1    
    36   17   87 1    
    37   18   19 1    
    38   18   37 1    
    39   18   88 1    
    40   19   20 am   BACKBONE|DICT|INTERRES
    41   19   89 1    
    42   20   21 2    
    43   20   22 1    
    44   22   23 1    
    45   22   24 1    
    46   22   90 1    
    47   23   91 1    
    48   23   92 1    
    49   23   93 1    
    50   24   25 am   BACKBONE|DICT|INTERRES
    51   24   94 1    
    52   25   26 2    
    53   25   27 1    
    54   27   28 1    
    55   27   29 1    
    56   27   95 1    
    57   28   96 1    
    58   28   97 1    
    59   28   98 1    
    60   29   30 am   BACKBONE|DICT|INTERRES
    61   29   99 1    
    62   30   31 2    
    63   30   32 1    
    64   32   33 1    
    65   32   34 1    
    66   32  100 1    
    67   33  101 1    
    68   33  102 1    
    69   33  103 1    
    70   34   35 am   BACKBONE|DICT|INTERRES
    71   34  104 1    
    72   35   36 2    
    73   37   38 2    
    74   37   39 am   BACKBONE|DICT|INTERRES
    75   39   40 1    
    76   39  105 1    
    77   40   41 1    
    78   40   42 1    
    79   40  106 1    
    80   41  107 1    
    81   41  108 1    
    82   41  109 1    
    83   42   43 2    
    84   42   44 am   BACKBONE|DICT|INTERRES
    85   44   45 1    
    86   44  110 1    
    87   45   46 1    
    88   45   47 1    
    89   45  111 1    
    90   46  112 1    
    91   46  113 1    
    92   46  114 1    
    93   47   48 2    
    94   47   49 am   BACKBONE|DICT|INTERRES
    95   49   50 1    
    96   49  115 1    
    97   50   51 1    
    98   50   52 1    
    99   50  116 1    
   100   51  117 1    
   101   51  118 1    
   102   51  119 1    
   103   52   53 2    
   104   52   54 am   BACKBONE|DICT|INTERRES
   105   54   55 1    
   106   54  120 1    
   107   55   56 1    
   108   55   57 1    
   109   55  121 1    
   110   56  122 1    
   111   56  123 1    
   112   56  124 1    
   113   57   58 2    
   114   57   59 am   BACKBONE|DICT|INTERRES
   115   59   60 1    
   116   59  125 1    
   117   60   61 1    
   118   60   62 1    
   119   60  126 1    
   120   61  127 1    
   121   61  128 1    
   122   61  129 1    
   123   62   63 2    
   124   62   64 am   BACKBONE|DICT|INTERRES
   125   64   65 1    
   126   64  130 1    
   127   65   66 1    
   128   65   69 1    
   129   65  131 1    
   130   66   67 am   BACKBONE|DICT|INTERRES
   131   66   68 2    
   132   67  132 1    
   133   67  133 1    
   134   69   70 1    
   135   69  134 1    
   136   69  135 1    
   137   70   71 1    
   138   71  136 1    
   139   71  137 1    
@<TRIPOS>SUBSTRUCTURE
     1 UNK         1 GROUP             0       ****    0 ROOT    
