@<TRIPOS>MOLECULE
3R137
137   139    1
SMALL
USER_CHARGES


@<TRIPOS>ATOM
      1 CA         29.8610   -7.6991   -0.0445 C.3       0 UNK        -0.2020 
      2 C          28.7900   -6.6339    0.1350 C.2       0 UNK         0.4855 
      3 O          27.9527   -6.7518    1.0299 O.2       0 UNK        -0.5197 
      4 N          28.8115   -5.5932   -0.7074 N.am      1 UNK        -0.4892 
      5 CA         27.8438   -4.4884   -0.7115 C.3       1 UNK         0.0835 
      6 C6         28.3573   -3.2747   -1.5289 C.3       12 UNK        -0.0855 
      7 S7         28.9539   -3.6919   -3.2092 S.3       12 UNK        -0.2931 
      8 C8         28.8768   -2.0798   -4.0550 C.3       12 UNK         0.0378 
      9 C9         29.7171   -1.0171   -3.3642 C.ar      12 UNK        -0.0802 
     10 C10        31.0847   -0.9144   -3.6267 C.ar      12 UNK        -0.0944 
     11 C11        31.8517    0.0791   -3.0110 C.ar      12 UNK        -0.0787 
     12 C12        31.2399    0.9681   -2.1212 C.ar      12 UNK        -0.0862 
     13 C13        29.8736    0.8696   -1.8378 C.ar      12 UNK        -0.0733 
     14 C14        29.1201   -0.1289   -2.4667 C.ar      12 UNK        -0.0832 
     15 C15        29.2522    1.8142   -0.8101 C.3       12 UNK         0.0240 
     16 S16        27.5041    2.2343   -1.1252 S.3       12 UNK        -0.2522 
     17 C17        27.6374    3.3866   -2.5335 C.3       12 UNK        -0.0967 
     18 CA         27.4157    2.7214   -3.9210 C.3       5 UNK         0.0660 
     19 N          26.1716    1.9438   -3.9678 N.am      5 UNK        -0.4015 
     20 C          25.9165    0.9366   -4.8114 C.2       4 UNK         0.4946 
     21 O          26.7224    0.5232   -5.6494 O.2       4 UNK        -0.5353 
     22 CA         24.4972    0.3473   -4.7562 C.3       4 UNK         0.0277 
     23 CB         23.5535    1.1657   -5.6540 C.3       4 UNK        -0.1981 
     24 N          24.4732   -1.0498   -5.1937 N.am      4 UNK        -0.4209 
     25 C          24.9471   -2.0751   -4.4759 C.2       3 UNK         0.4942 
     26 O          25.3747   -1.9628   -3.3242 O.2       3 UNK        -0.5208 
     27 CA         24.9491   -3.4440   -5.1766 C.3       3 UNK         0.0250 
     28 CB         25.9392   -3.4602   -6.3546 C.3       3 UNK        -0.1990 
     29 N          25.3379   -4.4938   -4.2366 N.am      3 UNK        -0.4232 
     30 C          24.5220   -5.4199   -3.7185 C.2       2 UNK         0.4993 
     31 O          23.3350   -5.5396   -4.0261 O.2       2 UNK        -0.5286 
     32 CA         25.1287   -6.3925   -2.6885 C.3       2 UNK         0.0209 
     33 CB         25.3986   -7.7620   -3.3337 C.3       2 UNK        -0.1931 
     34 N          26.3698   -5.8998   -2.0831 N.am      2 UNK        -0.4546 
     35 C          26.4351   -4.9207   -1.1693 C.2       1 UNK         0.5154 
     36 O          25.4437   -4.3709   -0.6875 O.2       1 UNK        -0.5181 
     37 C          27.4230    3.7643   -5.0621 C.2       5 UNK         0.5014 
     38 O          27.3719    4.9678   -4.7975 O.2       5 UNK        -0.5248 
     39 N          27.4226    3.2905   -6.3121 N.am      6 UNK        -0.4434 
     40 CA         27.2688    4.1000   -7.5173 C.3       6 UNK         0.0363 
     41 CB         25.7764    4.1430   -7.8975 C.3       6 UNK        -0.1936 
     42 C          28.1054    3.5179   -8.6596 C.2       6 UNK         0.5081 
     43 O          28.5745    2.3793   -8.5723 O.2       6 UNK        -0.5248 
     44 N          28.2272    4.2944   -9.7448 N.am      7 UNK        -0.4718 
     45 CA         28.9559    3.9578  -10.9763 C.3       7 UNK         0.0273 
     46 CB         28.9737    5.1882  -11.8979 C.3       7 UNK        -0.1935 
     47 C          28.4252    2.7241  -11.7343 C.2       7 UNK         0.5018 
     48 O          29.1328    2.2009  -12.5946 O.2       7 UNK        -0.5186 
     49 N          27.2140    2.2626  -11.3909 N.am      8 UNK        -0.4240 
     50 CA         26.6568    0.9768  -11.8174 C.3       8 UNK         0.0235 
     51 CB         25.1856    0.8907  -11.3792 C.3       8 UNK        -0.2000 
     52 C          27.4530   -0.2264  -11.2743 C.2       8 UNK         0.4941 
     53 O          27.5330   -1.2477  -11.9579 O.2       8 UNK        -0.5273 
     54 N          28.0330   -0.0781  -10.0744 N.am      9 UNK        -0.4262 
     55 CA         28.9505   -1.0397   -9.4648 C.3       9 UNK         0.0264 
     56 CB         28.6192   -1.1902   -7.9711 C.3       9 UNK        -0.1955 
     57 C          30.4053   -0.5848   -9.6441 C.2       9 UNK         0.5031 
     58 O          31.2572   -1.4089   -9.9803 O.2       9 UNK        -0.5390 
     59 N          30.6679    0.7085   -9.3863 N.am      10 UNK        -0.4204 
     60 CA         31.9641    1.4004   -9.4794 C.3       10 UNK         0.0237 
     61 CB         32.3869    1.5448  -10.9569 C.3       10 UNK        -0.1985 
     62 C          33.0854    0.7788   -8.6177 C.2       10 UNK         0.4970 
     63 O          34.2632    0.9721   -8.9245 O.2       10 UNK        -0.4914 
     64 N          32.7005    0.0295   -7.5752 N.am      11 UNK        -0.4285 
     65 CA         33.5727   -0.8105   -6.7381 C.3       11 UNK         0.1007 
     66 C          34.2703   -1.9764   -7.5069 C.2       11 UNK         0.5703 
     67 N          33.7622   -2.4069   -8.6572 N.am      11 UNK        -0.7361 
     68 O          35.2663   -2.5266   -7.0425 O.2       11 UNK        -0.4986 
     69 C69        34.5450    0.0120   -5.8437 C.3       12 UNK        -0.0947 
     70 S70        33.6763    1.1982   -4.7609 S.3       12 UNK        -0.2240 
     71 C71        33.3442    0.1801   -3.2878 C.3       12 UNK         0.0194 
     72 H72        30.5366   -7.4644   -0.8669 H         1 UNK         0.0906 
     73 H73        30.4540   -7.7918    0.8650 H         1 UNK         0.0906 
     74 H74        29.3992   -8.6644   -0.2501 H         1 UNK         0.0906 
     75 H75        29.5232   -5.5381   -1.4239 H         1 UNK         0.3140 
     76 H76        27.7315   -4.1560    0.3232 H         1 UNK         0.1085 
     77 H77        29.1851   -2.8069   -0.9933 H         1 UNK         0.0836 
     78 H78        27.5821   -2.5086   -1.5984 H         1 UNK         0.0836 
     79 H79        27.8421   -1.7487   -4.1271 H         1 UNK         0.0731 
     80 H80        29.2216   -2.2065   -5.0814 H         1 UNK         0.0731 
     81 H81        31.5488   -1.6156   -4.3042 H         1 UNK         0.1312 
     82 H82        31.8353    1.7298   -1.6360 H         1 UNK         0.1406 
     83 H83        28.0633   -0.2235   -2.2580 H         1 UNK         0.1631 
     84 H84        29.8294    2.7374   -0.7375 H         1 UNK         0.0717 
     85 H85        29.3161    1.3363    0.1681 H         1 UNK         0.0717 
     86 H86        26.8987    4.1727   -2.3643 H         1 UNK         0.0934 
     87 H87        28.6098    3.8819   -2.5029 H         1 UNK         0.0934 
     88 H88        28.2541    2.0459   -4.1029 H         1 UNK         0.0739 
     89 H89        25.4492    2.2402   -3.3281 H         1 UNK         0.3093 
     90 H90        24.1356    0.3938   -3.7265 H         1 UNK         0.0818 
     91 H91        23.5176    2.2097   -5.3395 H         1 UNK         0.0819 
     92 H92        23.8758    1.1527   -6.6963 H         1 UNK         0.0819 
     93 H93        22.5337    0.7826   -5.6127 H         1 UNK         0.0819 
     94 H94        24.1776   -1.2168   -6.1441 H         1 UNK         0.3041 
     95 H95        23.9434   -3.6281   -5.5605 H         1 UNK         0.0784 
     96 H96        25.6543   -2.7393   -7.1213 H         1 UNK         0.0793 
     97 H97        26.9533   -3.2186   -6.0352 H         1 UNK         0.0793 
     98 H98        25.9665   -4.4393   -6.8333 H         1 UNK         0.0793 
     99 H99        26.2732   -4.4231   -3.8609 H         1 UNK         0.3024 
    100 H100       24.3882   -6.5254   -1.8962 H         1 UNK         0.1171 
    101 H101       26.1375   -7.6936   -4.1331 H         1 UNK         0.0786 
    102 H102       25.7614   -8.4821   -2.5999 H         1 UNK         0.0786 
    103 H103       24.4869   -8.1757   -3.7673 H         1 UNK         0.0786 
    104 H104       27.2366   -6.3015   -2.4111 H         1 UNK         0.2977 
    105 H105       27.4831    2.2857   -6.4573 H         1 UNK         0.3127 
    106 H106       27.6279    5.1149   -7.3329 H         1 UNK         0.0770 
    107 H107       25.3858    3.1462   -8.1070 H         1 UNK         0.0814 
    108 H108       25.6049    4.7565   -8.7827 H         1 UNK         0.0814 
    109 H109       25.1772    4.5708   -7.0934 H         1 UNK         0.0814 
    110 H110       27.7938    5.2072   -9.7268 H         1 UNK         0.2983 
    111 H111       29.9854    3.7310  -10.6918 H         1 UNK         0.0947 
    112 H112       29.5402    4.9875  -12.8086 H         1 UNK         0.0806 
    113 H113       29.4432    6.0434  -11.4115 H         1 UNK         0.0806 
    114 H114       27.9672    5.4815  -12.1989 H         1 UNK         0.0806 
    115 H115       26.6940    2.7794  -10.6977 H         1 UNK         0.3000 
    116 H116       26.6970    0.9366  -12.9081 H         1 UNK         0.0850 
    117 H117       25.0817    0.9427  -10.2945 H         1 UNK         0.0810 
    118 H118       24.7375   -0.0494  -11.7044 H         1 UNK         0.0810 
    119 H119       24.5937    1.6967  -11.8134 H         1 UNK         0.0810 
    120 H120       27.9354    0.8105   -9.5944 H         1 UNK         0.3040 
    121 H121       28.8403   -2.0188   -9.9360 H         1 UNK         0.0766 
    122 H122       28.7642   -0.2603   -7.4193 H         1 UNK         0.0812 
    123 H123       27.5835   -1.4940   -7.8282 H         1 UNK         0.0812 
    124 H124       29.2497   -1.9502   -7.5089 H         1 UNK         0.0812 
    125 H125       29.8954    1.2929   -9.0655 H         1 UNK         0.3205 
    126 H126       31.8003    2.4026   -9.0805 H         1 UNK         0.0754 
    127 H127       33.2717    2.1748  -11.0555 H         1 UNK         0.0769 
    128 H128       31.6011    2.0036  -11.5548 H         1 UNK         0.0769 
    129 H129       32.6233    0.5783  -11.4033 H         1 UNK         0.0769 
    130 H130       31.7117   -0.0615   -7.4010 H         1 UNK         0.2981 
    131 H131       32.8943   -1.3302   -6.0649 H         1 UNK         0.0541 
    132 H132       34.2148   -3.1674   -9.1380 H         1 UNK         0.3459 
    133 H133       32.9308   -1.9830   -9.0574 H         1 UNK         0.3459 
    134 H134       35.2499    0.5696   -6.4615 H         1 UNK         0.0612 
    135 H135       35.1556   -0.6432   -5.2206 H         1 UNK         0.0612 
    136 H136       33.7617   -0.8208   -3.4040 H         1 UNK         0.0624 
    137 H137       33.8580    0.6228   -2.4332 H         1 UNK         0.0624 
@<TRIPOS>BOND
     1    1    2 1    
     2    1   72 1    
     3    1   73 1    
     4    1   74 1    
     5    2    3 2    
     6    2    4 am   BACKBONE|DICT|INTERRES
     7    4    5 1    
     8    4   75 1    
     9    5    6 1    
    10    5   35 1    
    11    5   76 1    
    12    6    7 1    
    13    6   77 1    
    14    6   78 1    
    15    7    8 1    
    16    8    9 1    
    17    8   79 1    
    18    8   80 1    
    19    9   10 ar   
    20    9   14 ar   
    21   10   11 ar   
    22   10   81 1    
    23   11   12 ar   
    24   11   71 1    
    25   12   13 ar   
    26   12   82 1    
    27   13   14 ar   
    28   13   15 1    
    29   14   83 1    
    30   15   16 1    
    31   15   84 1    
    32   15   85 1    
    33   16   17 1    
    34   17   18 1    
    35   17   86 1    
    36   17   87 1    
    37   18   19 1    
    38   18   37 1    
    39   18   88 1    
    40   19   20 am   BACKBONE|DICT|INTERRES
    41   19   89 1    
    42   20   21 2    
    43   20   22 1    
    44   22   23 1    
    45   22   24 1    
    46   22   90 1    
    47   23   91 1    
    48   23   92 1    
    49   23   93 1    
    50   24   25 am   BACKBONE|DICT|INTERRES
    51   24   94 1    
    52   25   26 2    
    53   25   27 1    
    54   27   28 1    
    55   27   29 1    
    56   27   95 1    
    57   28   96 1    
    58   28   97 1    
    59   28   98 1    
    60   29   30 am   BACKBONE|DICT|INTERRES
    61   29   99 1    
    62   30   31 2    
    63   30   32 1    
    64   32   33 1    
    65   32   34 1    
    66   32  100 1    
    67   33  101 1    
    68   33  102 1    
    69   33  103 1    
    70   34   35 am   BACKBONE|DICT|INTERRES
    71   34  104 1    
    72   35   36 2    
    73   37   38 2    
    74   37   39 am   BACKBONE|DICT|INTERRES
    75   39   40 1    
    76   39  105 1    
    77   40   41 1    
    78   40   42 1    
    79   40  106 1    
    80   41  107 1    
    81   41  108 1    
    82   41  109 1    
    83   42   43 2    
    84   42   44 am   BACKBONE|DICT|INTERRES
    85   44   45 1    
    86   44  110 1    
    87   45   46 1    
    88   45   47 1    
    89   45  111 1    
    90   46  112 1    
    91   46  113 1    
    92   46  114 1    
    93   47   48 2    
    94   47   49 am   BACKBONE|DICT|INTERRES
    95   49   50 1    
    96   49  115 1    
    97   50   51 1    
    98   50   52 1    
    99   50  116 1    
   100   51  117 1    
   101   51  118 1    
   102   51  119 1    
   103   52   53 2    
   104   52   54 am   BACKBONE|DICT|INTERRES
   105   54   55 1    
   106   54  120 1    
   107   55   56 1    
   108   55   57 1    
   109   55  121 1    
   110   56  122 1    
   111   56  123 1    
   112   56  124 1    
   113   57   58 2    
   114   57   59 am   BACKBONE|DICT|INTERRES
   115   59   60 1    
   116   59  125 1    
   117   60   61 1    
   118   60   62 1    
   119   60  126 1    
   120   61  127 1    
   121   61  128 1    
   122   61  129 1    
   123   62   63 2    
   124   62   64 am   BACKBONE|DICT|INTERRES
   125   64   65 1    
   126   64  130 1    
   127   65   66 1    
   128   65   69 1    
   129   65  131 1    
   130   66   67 am   BACKBONE|DICT|INTERRES
   131   66   68 2    
   132   67  132 1    
   133   67  133 1    
   134   69   70 1    
   135   69  134 1    
   136   69  135 1    
   137   70   71 1    
   138   71  136 1    
   139   71  137 1    
@<TRIPOS>SUBSTRUCTURE
     1 UNK         1 GROUP             0       ****    0 ROOT    
