@<TRIPOS>MOLECULE
3R137
137   139    1
SMALL
USER_CHARGES


@<TRIPOS>ATOM
      1 CA         25.7969   -6.6089   -3.8503 C.3       0 UNK        -0.2020 
      2 C          25.7357   -5.5530   -2.7572 C.2       0 UNK         0.4855 
      3 O          24.6611   -5.0196   -2.4770 O.2       0 UNK        -0.5197 
      4 N          26.8828   -5.2464   -2.1384 N.am      1 UNK        -0.4892 
      5 CA         27.0543   -4.2291   -1.0958 C.3       1 UNK         0.0835 
      6 C6         28.4797   -4.2370   -0.4745 C.3       12 UNK        -0.0855 
      7 S7         29.8456   -4.5668   -1.6502 S.3       12 UNK        -0.2931 
      8 C8         31.1128   -3.3608   -1.1466 C.3       12 UNK         0.0378 
      9 C9         31.1778   -2.1892   -2.1131 C.ar      12 UNK        -0.0802 
     10 C10        31.9574   -2.2843   -3.2675 C.ar      12 UNK        -0.0944 
     11 C11        32.0393   -1.2155   -4.1643 C.ar      12 UNK        -0.0787 
     12 C12        31.3287   -0.0395   -3.8983 C.ar      12 UNK        -0.0862 
     13 C13        30.5590    0.0782   -2.7339 C.ar      12 UNK        -0.0733 
     14 C14        30.4884   -1.0042   -1.8472 C.ar      12 UNK        -0.0832 
     15 C15        29.8582    1.3937   -2.4055 C.3       12 UNK         0.0240 
     16 S16        28.1311    1.1501   -1.8747 S.3       12 UNK        -0.2522 
     17 C17        27.1817    2.2286   -2.9985 C.3       12 UNK        -0.0967 
     18 CA         27.3079    1.8892   -4.5078 C.3       5 UNK         0.0660 
     19 N          27.2871    0.4535   -4.7907 N.am      5 UNK        -0.4015 
     20 C          27.5968   -0.0990   -5.9719 C.2       4 UNK         0.4946 
     21 O          27.9792    0.5394   -6.9535 O.2       4 UNK        -0.5353 
     22 CA         27.3948   -1.6167   -6.0903 C.3       4 UNK         0.0277 
     23 CB         28.6275   -2.3732   -5.5688 C.3       4 UNK        -0.1981 
     24 N          26.1923   -2.0563   -5.3763 N.am      4 UNK        -0.4209 
     25 C          24.9425   -1.7712   -5.7782 C.2       3 UNK         0.4942 
     26 O          24.6836   -1.1728   -6.8214 O.2       3 UNK        -0.5208 
     27 CA         23.7836   -2.1687   -4.8469 C.3       3 UNK         0.0250 
     28 CB         23.2741   -3.5772   -5.1862 C.3       3 UNK        -0.1990 
     29 N          24.1352   -2.0873   -3.4269 N.am      3 UNK        -0.4232 
     30 C          24.4401   -0.9396   -2.8000 C.2       2 UNK         0.4993 
     31 O          24.3915    0.1628   -3.3454 O.2       2 UNK        -0.5286 
     32 CA         24.9250   -1.0209   -1.3414 C.3       2 UNK         0.0209 
     33 CB         23.7623   -0.7411   -0.3765 C.3       2 UNK        -0.1931 
     34 N          25.5615   -2.2915   -0.9792 N.am      2 UNK        -0.4546 
     35 C          26.6224   -2.8351   -1.5942 C.2       1 UNK         0.5154 
     36 O          27.1979   -2.3145   -2.5507 O.2       1 UNK        -0.5181 
     37 C          26.2287    2.6313   -5.3186 C.2       5 UNK         0.5014 
     38 O          26.5338    3.6493   -5.9392 O.2       5 UNK        -0.5248 
     39 N          24.9997    2.0914   -5.3259 N.am      6 UNK        -0.4434 
     40 CA         23.8539    2.6067   -6.0824 C.3       6 UNK         0.0363 
     41 CB         22.5919    1.8142   -5.7078 C.3       6 UNK        -0.1936 
     42 C          24.0722    2.5852   -7.6050 C.2       6 UNK         0.5081 
     43 O          23.6709    3.5285   -8.2867 O.2       6 UNK        -0.5248 
     44 N          24.7325    1.5325   -8.1068 N.am      7 UNK        -0.4718 
     45 CA         25.1611    1.4069   -9.5031 C.3       7 UNK         0.0273 
     46 CB         25.5025   -0.0654   -9.7875 C.3       7 UNK        -0.1935 
     47 C          26.3592    2.3060   -9.8661 C.2       7 UNK         0.5018 
     48 O          26.6414    2.4611  -11.0551 O.2       7 UNK        -0.5186 
     49 N          27.0482    2.8530   -8.8517 N.am      8 UNK        -0.4240 
     50 CA         28.2967    3.6205   -8.9215 C.3       8 UNK         0.0235 
     51 CB         28.0721    4.9803   -9.6167 C.3       8 UNK        -0.2000 
     52 C          29.4470    2.8012   -9.5377 C.2       8 UNK         0.4941 
     53 O          30.2054    3.3183  -10.3615 O.2       8 UNK        -0.5273 
     54 N          29.5371    1.5236   -9.1451 N.am      9 UNK        -0.4262 
     55 CA         30.5385    0.5772   -9.6279 C.3       9 UNK         0.0264 
     56 CB         30.0839   -0.8502   -9.2807 C.3       9 UNK        -0.1955 
     57 C          31.9183    0.8602   -9.0163 C.2       9 UNK         0.5031 
     58 O          32.0082    1.2040   -7.8354 O.2       9 UNK        -0.5390 
     59 N          32.9690    0.6607   -9.8216 N.am      10 UNK        -0.4204 
     60 CA         34.3649    0.6898   -9.3733 C.3       10 UNK         0.0237 
     61 CB         35.2738    1.0230  -10.5682 C.3       10 UNK        -0.1985 
     62 C          34.7993   -0.6362   -8.7209 C.2       10 UNK         0.4970 
     63 O          35.7530   -0.6345   -7.9424 O.2       10 UNK        -0.4914 
     64 N          34.1034   -1.7320   -9.0603 N.am      11 UNK        -0.4285 
     65 CA         34.3327   -3.1089   -8.5865 C.3       11 UNK         0.1007 
     66 C          35.6613   -3.7585   -9.0846 C.2       11 UNK         0.5703 
     67 N          36.3249   -3.2152  -10.0986 N.am      11 UNK        -0.7361 
     68 O          36.0841   -4.7917   -8.5704 O.2       11 UNK        -0.4986 
     69 C69        34.1229   -3.2775   -7.0543 C.3       12 UNK        -0.0947 
     70 S70        32.4882   -2.6997   -6.4759 S.3       12 UNK        -0.2240 
     71 C71        32.9520   -1.3191   -5.3788 C.3       12 UNK         0.0194 
     72 H72        26.7499   -7.1379   -3.8499 H         1 UNK         0.0906 
     73 H73        25.0043   -7.3432   -3.7083 H         1 UNK         0.0906 
     74 H74        25.6647   -6.1483   -4.8286 H         1 UNK         0.0906 
     75 H75        27.7460   -5.6797   -2.4379 H         1 UNK         0.3140 
     76 H76        26.3671   -4.5070   -0.2934 H         1 UNK         0.1085 
     77 H77        28.5276   -5.0242    0.2796 H         1 UNK         0.0836 
     78 H78        28.6659   -3.3107    0.0723 H         1 UNK         0.0836 
     79 H79        32.0798   -3.8658   -1.1246 H         1 UNK         0.0731 
     80 H80        30.9384   -3.0139   -0.1272 H         1 UNK         0.0731 
     81 H81        32.5078   -3.1935   -3.4683 H         1 UNK         0.1312 
     82 H82        31.4007    0.7940   -4.5843 H         1 UNK         0.1406 
     83 H83        29.8975   -0.9227   -0.9454 H         1 UNK         0.1631 
     84 H84        29.9025    2.0771   -3.2532 H         1 UNK         0.0717 
     85 H85        30.4016    1.8831   -1.5964 H         1 UNK         0.0717 
     86 H86        26.1410    2.1651   -2.6739 H         1 UNK         0.0934 
     87 H87        27.4828    3.2629   -2.8216 H         1 UNK         0.0934 
     88 H88        28.2731    2.2608   -4.8568 H         1 UNK         0.0739 
     89 H89        27.0129   -0.1500   -4.0275 H         1 UNK         0.3093 
     90 H90        27.2708   -1.8569   -7.1484 H         1 UNK         0.0818 
     91 H91        28.8493   -2.1323   -4.5285 H         1 UNK         0.0819 
     92 H92        28.4971   -3.4526   -5.6423 H         1 UNK         0.0819 
     93 H93        29.5141   -2.1132   -6.1466 H         1 UNK         0.0819 
     94 H94        26.3376   -2.4788   -4.4657 H         1 UNK         0.3041 
     95 H95        22.9658   -1.4669   -5.0217 H         1 UNK         0.0784 
     96 H96        22.9218   -3.6238   -6.2176 H         1 UNK         0.0793 
     97 H97        24.0568   -4.3270   -5.0778 H         1 UNK         0.0793 
     98 H98        22.4409   -3.8656   -4.5450 H         1 UNK         0.0793 
     99 H99        24.2195   -2.9637   -2.9222 H         1 UNK         0.3024 
    100 H100       25.6706   -0.2355   -1.2110 H         1 UNK         0.1171 
    101 H101       22.9938   -1.5130   -0.4353 H         1 UNK         0.0786 
    102 H102       23.2849    0.2125   -0.6076 H         1 UNK         0.0786 
    103 H103       24.1068   -0.6853    0.6563 H         1 UNK         0.0786 
    104 H104       25.1247   -2.8067   -0.2283 H         1 UNK         0.2977 
    105 H105       24.8216    1.2847   -4.7281 H         1 UNK         0.3127 
    106 H106       23.7058    3.6467   -5.7845 H         1 UNK         0.0770 
    107 H107       22.6816    0.7631   -5.9830 H         1 UNK         0.0814 
    108 H108       21.7150    2.2121   -6.2201 H         1 UNK         0.0814 
    109 H109       22.3937    1.8644   -4.6369 H         1 UNK         0.0814 
    110 H110       24.9597    0.7569   -7.4918 H         1 UNK         0.2983 
    111 H111       24.3289    1.6982  -10.1476 H         1 UNK         0.0947 
    112 H112       25.7987   -0.2072  -10.8277 H         1 UNK         0.0806 
    113 H113       24.6458   -0.7140   -9.6039 H         1 UNK         0.0806 
    114 H114       26.3261   -0.4136   -9.1627 H         1 UNK         0.0806 
    115 H115       26.7223    2.6590   -7.9126 H         1 UNK         0.3000 
    116 H116       28.5878    3.8212   -7.8893 H         1 UNK         0.0850 
    117 H117       28.9678    5.5999   -9.5594 H         1 UNK         0.0810 
    118 H118       27.2627    5.5366   -9.1439 H         1 UNK         0.0810 
    119 H119       27.8267    4.8613  -10.6724 H         1 UNK         0.0810 
    120 H120       28.9165    1.1912   -8.4077 H         1 UNK         0.3040 
    121 H121       30.5983    0.6689  -10.7146 H         1 UNK         0.0766 
    122 H122       29.0977   -1.0659   -9.6925 H         1 UNK         0.0812 
    123 H123       30.0356   -1.0004   -8.2017 H         1 UNK         0.0812 
    124 H124       30.7740   -1.5935   -9.6811 H         1 UNK         0.0812 
    125 H125       32.8052    0.4180  -10.7888 H         1 UNK         0.3205 
    126 H126       34.4831    1.4783   -8.6265 H         1 UNK         0.0754 
    127 H127       36.3196    1.0723  -10.2611 H         1 UNK         0.0769 
    128 H128       35.0200    1.9914  -11.0001 H         1 UNK         0.0769 
    129 H129       35.2007    0.2738  -11.3575 H         1 UNK         0.0769 
    130 H130       33.3478   -1.6282   -9.7189 H         1 UNK         0.2981 
    131 H131       33.5557   -3.7001   -9.0721 H         1 UNK         0.0541 
    132 H132       35.9878   -2.3762  -10.5412 H         1 UNK         0.3459 
    133 H133       37.1755   -3.6500  -10.4197 H         1 UNK         0.3459 
    134 H134       34.1926   -4.3313   -6.7796 H         1 UNK         0.0612 
    135 H135       34.9232   -2.7788   -6.5071 H         1 UNK         0.0612 
    136 H136       32.9484   -0.3946   -5.9559 H         1 UNK         0.0624 
    137 H137       33.9713   -1.4474   -5.0144 H         1 UNK         0.0624 
@<TRIPOS>BOND
     1    1    2 1    
     2    1   72 1    
     3    1   73 1    
     4    1   74 1    
     5    2    3 2    
     6    2    4 am   BACKBONE|DICT|INTERRES
     7    4    5 1    
     8    4   75 1    
     9    5    6 1    
    10    5   35 1    
    11    5   76 1    
    12    6    7 1    
    13    6   77 1    
    14    6   78 1    
    15    7    8 1    
    16    8    9 1    
    17    8   79 1    
    18    8   80 1    
    19    9   10 ar   
    20    9   14 ar   
    21   10   11 ar   
    22   10   81 1    
    23   11   12 ar   
    24   11   71 1    
    25   12   13 ar   
    26   12   82 1    
    27   13   14 ar   
    28   13   15 1    
    29   14   83 1    
    30   15   16 1    
    31   15   84 1    
    32   15   85 1    
    33   16   17 1    
    34   17   18 1    
    35   17   86 1    
    36   17   87 1    
    37   18   19 1    
    38   18   37 1    
    39   18   88 1    
    40   19   20 am   BACKBONE|DICT|INTERRES
    41   19   89 1    
    42   20   21 2    
    43   20   22 1    
    44   22   23 1    
    45   22   24 1    
    46   22   90 1    
    47   23   91 1    
    48   23   92 1    
    49   23   93 1    
    50   24   25 am   BACKBONE|DICT|INTERRES
    51   24   94 1    
    52   25   26 2    
    53   25   27 1    
    54   27   28 1    
    55   27   29 1    
    56   27   95 1    
    57   28   96 1    
    58   28   97 1    
    59   28   98 1    
    60   29   30 am   BACKBONE|DICT|INTERRES
    61   29   99 1    
    62   30   31 2    
    63   30   32 1    
    64   32   33 1    
    65   32   34 1    
    66   32  100 1    
    67   33  101 1    
    68   33  102 1    
    69   33  103 1    
    70   34   35 am   BACKBONE|DICT|INTERRES
    71   34  104 1    
    72   35   36 2    
    73   37   38 2    
    74   37   39 am   BACKBONE|DICT|INTERRES
    75   39   40 1    
    76   39  105 1    
    77   40   41 1    
    78   40   42 1    
    79   40  106 1    
    80   41  107 1    
    81   41  108 1    
    82   41  109 1    
    83   42   43 2    
    84   42   44 am   BACKBONE|DICT|INTERRES
    85   44   45 1    
    86   44  110 1    
    87   45   46 1    
    88   45   47 1    
    89   45  111 1    
    90   46  112 1    
    91   46  113 1    
    92   46  114 1    
    93   47   48 2    
    94   47   49 am   BACKBONE|DICT|INTERRES
    95   49   50 1    
    96   49  115 1    
    97   50   51 1    
    98   50   52 1    
    99   50  116 1    
   100   51  117 1    
   101   51  118 1    
   102   51  119 1    
   103   52   53 2    
   104   52   54 am   BACKBONE|DICT|INTERRES
   105   54   55 1    
   106   54  120 1    
   107   55   56 1    
   108   55   57 1    
   109   55  121 1    
   110   56  122 1    
   111   56  123 1    
   112   56  124 1    
   113   57   58 2    
   114   57   59 am   BACKBONE|DICT|INTERRES
   115   59   60 1    
   116   59  125 1    
   117   60   61 1    
   118   60   62 1    
   119   60  126 1    
   120   61  127 1    
   121   61  128 1    
   122   61  129 1    
   123   62   63 2    
   124   62   64 am   BACKBONE|DICT|INTERRES
   125   64   65 1    
   126   64  130 1    
   127   65   66 1    
   128   65   69 1    
   129   65  131 1    
   130   66   67 am   BACKBONE|DICT|INTERRES
   131   66   68 2    
   132   67  132 1    
   133   67  133 1    
   134   69   70 1    
   135   69  134 1    
   136   69  135 1    
   137   70   71 1    
   138   71  136 1    
   139   71  137 1    
@<TRIPOS>SUBSTRUCTURE
     1 UNK         1 GROUP             0       ****    0 ROOT    
