@<TRIPOS>MOLECULE
3R137
137   139    1
SMALL
USER_CHARGES


@<TRIPOS>ATOM
      1 CA         24.5151   -5.8235   -4.5724 C.3       0 UNK        -0.2020 
      2 C          25.0115   -5.0608   -3.3539 C.2       0 UNK         0.4855 
      3 O          24.2154   -4.4290   -2.6588 O.2       0 UNK        -0.5197 
      4 N          26.3257   -5.1043   -3.0988 N.am      1 UNK        -0.4892 
      5 CA         27.0137   -4.4207   -1.9976 C.3       1 UNK         0.0835 
      6 C6         28.5072   -4.8208   -1.9700 C.3       12 UNK        -0.0855 
      7 S7         29.3775   -4.2505   -0.4715 S.3       12 UNK        -0.2931 
      8 C8         31.0561   -3.9676   -1.1204 C.3       12 UNK         0.0378 
      9 C9         31.1215   -2.7822   -2.0749 C.ar      12 UNK        -0.0802 
     10 C10        31.2849   -2.9854   -3.4480 C.ar      12 UNK        -0.0944 
     11 C11        31.3925   -1.8988   -4.3212 C.ar      12 UNK        -0.0787 
     12 C12        31.3357   -0.5982   -3.8106 C.ar      12 UNK        -0.0862 
     13 C13        31.1373   -0.3800   -2.4414 C.ar      12 UNK        -0.0733 
     14 C14        31.0415   -1.4782   -1.5805 C.ar      12 UNK        -0.0832 
     15 C15        31.0285    1.0297   -1.8642 C.3       12 UNK         0.0240 
     16 S16        29.9781    2.1730   -2.8276 S.3       12 UNK        -0.2522 
     17 C17        28.4581    1.2052   -3.1304 C.3       12 UNK        -0.0967 
     18 CA         28.2046    1.0502   -4.6528 C.3       5 UNK         0.0660 
     19 N          27.5987   -0.2375   -4.9982 N.am      5 UNK        -0.4015 
     20 C          27.4062   -0.6773   -6.2502 C.2       4 UNK         0.4946 
     21 O          27.8001   -0.0823   -7.2537 O.2       4 UNK        -0.5353 
     22 CA         26.5795   -1.9615   -6.4161 C.3       4 UNK         0.0277 
     23 CB         27.4632   -3.2125   -6.2820 C.3       4 UNK        -0.1981 
     24 N          25.4691   -2.0102   -5.4597 N.am      4 UNK        -0.4209 
     25 C          24.3851   -1.2220   -5.5356 C.2       3 UNK         0.4942 
     26 O          24.1752   -0.4445   -6.4642 O.2       3 UNK        -0.5208 
     27 CA         23.3958   -1.2556   -4.3595 C.3       3 UNK         0.0250 
     28 CB         22.3206   -2.3316   -4.5737 C.3       3 UNK        -0.1990 
     29 N          24.0660   -1.4533   -3.0719 N.am      3 UNK        -0.4232 
     30 C          24.8375   -0.5217   -2.4893 C.2       2 UNK         0.4993 
     31 O          25.0123    0.6036   -2.9563 O.2       2 UNK        -0.5286 
     32 CA         25.5904   -0.9221   -1.2075 C.3       2 UNK         0.0209 
     33 CB         24.7386   -0.6190    0.0348 C.3       2 UNK        -0.1931 
     34 N          26.0052   -2.3284   -1.1874 N.am      2 UNK        -0.4546 
     35 C          26.8125   -2.8935   -2.0958 C.2       1 UNK         0.5154 
     36 O          27.3238   -2.2695   -3.0272 O.2       1 UNK        -0.5181 
     37 C          27.4095    2.2462   -5.2236 C.2       5 UNK         0.5014 
     38 O          28.0132    3.1933   -5.7260 O.2       5 UNK        -0.5248 
     39 N          26.0730    2.1749   -5.1606 N.am      6 UNK        -0.4434 
     40 CA         25.1717    3.1615   -5.7540 C.3       6 UNK         0.0363 
     41 CB         23.7522    2.9648   -5.1968 C.3       6 UNK        -0.1936 
     42 C          25.1677    3.1197   -7.2930 C.2       6 UNK         0.5081 
     43 O          25.2699    4.1732   -7.9225 O.2       6 UNK        -0.5248 
     44 N          25.0135    1.9200   -7.8707 N.am      7 UNK        -0.4718 
     45 CA         24.8295    1.7237   -9.3104 C.3       7 UNK         0.0273 
     46 CB         24.1650    0.3606   -9.5656 C.3       7 UNK        -0.1935 
     47 C          26.1223    1.8490  -10.1303 C.2       7 UNK         0.5018 
     48 O          26.1174    2.5420  -11.1490 O.2       7 UNK        -0.5186 
     49 N          27.1822    1.1490   -9.7074 N.am      8 UNK        -0.4240 
     50 CA         28.4388    1.0245  -10.4502 C.3       8 UNK         0.0235 
     51 CB         28.8343   -0.4598  -10.5356 C.3       8 UNK        -0.2000 
     52 C          29.5709    1.8357   -9.8111 C.2       8 UNK         0.4941 
     53 O          30.3800    2.4071  -10.5444 O.2       8 UNK        -0.5273 
     54 N          29.6259    1.8595   -8.4708 N.am      9 UNK        -0.4262 
     55 CA         30.6382    2.4963   -7.6135 C.3       9 UNK         0.0264 
     56 CB         30.7097    4.0212   -7.8307 C.3       9 UNK        -0.1955 
     57 C          32.0250    1.8402   -7.7043 C.2       9 UNK         0.5031 
     58 O          32.5540    1.4062   -6.6807 O.2       9 UNK        -0.5390 
     59 N          32.5798    1.7619   -8.9175 N.am      10 UNK        -0.4204 
     60 CA         33.7950    1.0175   -9.2299 C.3       10 UNK         0.0237 
     61 CB         34.4370    1.6039  -10.4976 C.3       10 UNK        -0.1985 
     62 C          33.4462   -0.4634   -9.4308 C.2       10 UNK         0.4970 
     63 O          32.4837   -0.7686  -10.1390 O.2       10 UNK        -0.4914 
     64 N          34.2423   -1.3477   -8.8265 N.am      11 UNK        -0.4285 
     65 CA         34.0741   -2.8071   -8.8898 C.3       11 UNK         0.1007 
     66 C          35.4083   -3.5962   -8.7469 C.2       11 UNK         0.5703 
     67 N          36.5707   -2.9587   -8.8424 N.am      11 UNK        -0.7361 
     68 O          35.3979   -4.8128   -8.5732 O.2       11 UNK        -0.4986 
     69 C69        32.9329   -3.3162   -7.9632 C.3       12 UNK        -0.0947 
     70 S70        33.1625   -2.8887   -6.2025 S.3       12 UNK        -0.2240 
     71 C71        31.5499   -2.1401   -5.8151 C.3       12 UNK         0.0194 
     72 H72        23.6164   -6.3869   -4.3226 H         1 UNK         0.0906 
     73 H73        24.2715   -5.1315   -5.3778 H         1 UNK         0.0906 
     74 H74        25.2606   -6.5271   -4.9422 H         1 UNK         0.0906 
     75 H75        26.9243   -5.6303   -3.7194 H         1 UNK         0.3140 
     76 H76        26.5564   -4.7711   -1.0697 H         1 UNK         0.1085 
     77 H77        29.0097   -4.4529   -2.8653 H         1 UNK         0.0836 
     78 H78        28.6015   -5.9076   -2.0007 H         1 UNK         0.0836 
     79 H79        31.4123   -4.8777   -1.6060 H         1 UNK         0.0731 
     80 H80        31.7308   -3.7886   -0.2819 H         1 UNK         0.0731 
     81 H81        31.3398   -3.9912   -3.8417 H         1 UNK         0.1312 
     82 H82        31.4261    0.2453   -4.4814 H         1 UNK         0.1406 
     83 H83        30.9030   -1.3233   -0.5189 H         1 UNK         0.1631 
     84 H84        32.0300    1.4551   -1.7901 H         1 UNK         0.0717 
     85 H85        30.6344    0.9942   -0.8473 H         1 UNK         0.0717 
     86 H86        28.5579    0.2274   -2.6581 H         1 UNK         0.0934 
     87 H87        27.6182    1.6831   -2.6220 H         1 UNK         0.0934 
     88 H88        29.1700    1.0373   -5.1592 H         1 UNK         0.0739 
     89 H89        27.3300   -0.8447   -4.2274 H         1 UNK         0.3093 
     90 H90        26.1583   -1.9555   -7.4239 H         1 UNK         0.0818 
     91 H91        28.2417   -3.2159   -7.0461 H         1 UNK         0.0819 
     92 H92        27.9635   -3.2648   -5.3152 H         1 UNK         0.0819 
     93 H93        26.8815   -4.1253   -6.4101 H         1 UNK         0.0819 
     94 H94        25.6099   -2.5637   -4.6268 H         1 UNK         0.3041 
     95 H95        22.8922   -0.2868   -4.3283 H         1 UNK         0.0784 
     96 H96        21.7708   -2.1504   -5.4984 H         1 UNK         0.0793 
     97 H97        22.7487   -3.3306   -4.6430 H         1 UNK         0.0793 
     98 H98        21.5944   -2.3341   -3.7608 H         1 UNK         0.0793 
     99 H99        24.0040   -2.3782   -2.6565 H         1 UNK         0.3024 
    100 H100       26.4948   -0.3118   -1.1601 H         1 UNK         0.1171 
    101 H101       25.2943   -0.8083    0.9534 H         1 UNK         0.0786 
    102 H102       24.4347    0.4288    0.0525 H         1 UNK         0.0786 
    103 H103       23.8302   -1.2224    0.0598 H         1 UNK         0.0786 
    104 H104       25.5906   -2.9125   -0.4751 H         1 UNK         0.2977 
    105 H105       25.6474    1.4134   -4.6396 H         1 UNK         0.3127 
    106 H106       25.5141    4.1533   -5.4506 H         1 UNK         0.0770 
    107 H107       23.3476    1.9852   -5.4519 H         1 UNK         0.0814 
    108 H108       23.0690    3.7143   -5.5983 H         1 UNK         0.0814 
    109 H109       23.7365    3.0590   -4.1108 H         1 UNK         0.0814 
    110 H110       24.8867    1.1001   -7.2812 H         1 UNK         0.2983 
    111 H111       24.1428    2.4939   -9.6694 H         1 UNK         0.0947 
    112 H112       24.7805   -0.4643   -9.2046 H         1 UNK         0.0806 
    113 H113       23.9953    0.2003  -10.6312 H         1 UNK         0.0806 
    114 H114       23.1963    0.2941   -9.0699 H         1 UNK         0.0806 
    115 H115       27.1315    0.6511   -8.8213 H         1 UNK         0.3000 
    116 H116       28.3127    1.3907  -11.4715 H         1 UNK         0.0850 
    117 H117       29.7590   -0.5840  -11.1013 H         1 UNK         0.0810 
    118 H118       28.0652   -1.0462  -11.0381 H         1 UNK         0.0810 
    119 H119       28.9983   -0.8966   -9.5498 H         1 UNK         0.0810 
    120 H120       28.9376    1.2983   -7.9749 H         1 UNK         0.3040 
    121 H121       30.3032    2.3413   -6.5901 H         1 UNK         0.0766 
    122 H122       29.7328    4.4829   -7.6856 H         1 UNK         0.0812 
    123 H123       31.0605    4.2845   -8.8285 H         1 UNK         0.0812 
    124 H124       31.3934    4.4808   -7.1161 H         1 UNK         0.0812 
    125 H125       32.0076    2.0676   -9.7024 H         1 UNK         0.3205 
    126 H126       34.5021    1.1198   -8.4037 H         1 UNK         0.0754 
    127 H127       35.3553    1.0730  -10.7521 H         1 UNK         0.0769 
    128 H128       34.6965    2.6538  -10.3603 H         1 UNK         0.0769 
    129 H129       33.7695    1.5340  -11.3579 H         1 UNK         0.0769 
    130 H130       34.9925   -1.0231   -8.2340 H         1 UNK         0.2981 
    131 H131       33.7671   -3.0417   -9.9107 H         1 UNK         0.0541 
    132 H132       37.4228   -3.4902   -8.7538 H         1 UNK         0.3459 
    133 H133       36.6171   -1.9768   -9.0588 H         1 UNK         0.3459 
    134 H134       31.9839   -2.9043   -8.3091 H         1 UNK         0.0612 
    135 H135       32.8205   -4.3986   -8.0431 H         1 UNK         0.0612 
    136 H136       31.4417   -1.2102   -6.3760 H         1 UNK         0.0624 
    137 H137       30.7511   -2.8026   -6.1516 H         1 UNK         0.0624 
@<TRIPOS>BOND
     1    1    2 1    
     2    1   72 1    
     3    1   73 1    
     4    1   74 1    
     5    2    3 2    
     6    2    4 am   BACKBONE|DICT|INTERRES
     7    4    5 1    
     8    4   75 1    
     9    5    6 1    
    10    5   35 1    
    11    5   76 1    
    12    6    7 1    
    13    6   77 1    
    14    6   78 1    
    15    7    8 1    
    16    8    9 1    
    17    8   79 1    
    18    8   80 1    
    19    9   10 ar   
    20    9   14 ar   
    21   10   11 ar   
    22   10   81 1    
    23   11   12 ar   
    24   11   71 1    
    25   12   13 ar   
    26   12   82 1    
    27   13   14 ar   
    28   13   15 1    
    29   14   83 1    
    30   15   16 1    
    31   15   84 1    
    32   15   85 1    
    33   16   17 1    
    34   17   18 1    
    35   17   86 1    
    36   17   87 1    
    37   18   19 1    
    38   18   37 1    
    39   18   88 1    
    40   19   20 am   BACKBONE|DICT|INTERRES
    41   19   89 1    
    42   20   21 2    
    43   20   22 1    
    44   22   23 1    
    45   22   24 1    
    46   22   90 1    
    47   23   91 1    
    48   23   92 1    
    49   23   93 1    
    50   24   25 am   BACKBONE|DICT|INTERRES
    51   24   94 1    
    52   25   26 2    
    53   25   27 1    
    54   27   28 1    
    55   27   29 1    
    56   27   95 1    
    57   28   96 1    
    58   28   97 1    
    59   28   98 1    
    60   29   30 am   BACKBONE|DICT|INTERRES
    61   29   99 1    
    62   30   31 2    
    63   30   32 1    
    64   32   33 1    
    65   32   34 1    
    66   32  100 1    
    67   33  101 1    
    68   33  102 1    
    69   33  103 1    
    70   34   35 am   BACKBONE|DICT|INTERRES
    71   34  104 1    
    72   35   36 2    
    73   37   38 2    
    74   37   39 am   BACKBONE|DICT|INTERRES
    75   39   40 1    
    76   39  105 1    
    77   40   41 1    
    78   40   42 1    
    79   40  106 1    
    80   41  107 1    
    81   41  108 1    
    82   41  109 1    
    83   42   43 2    
    84   42   44 am   BACKBONE|DICT|INTERRES
    85   44   45 1    
    86   44  110 1    
    87   45   46 1    
    88   45   47 1    
    89   45  111 1    
    90   46  112 1    
    91   46  113 1    
    92   46  114 1    
    93   47   48 2    
    94   47   49 am   BACKBONE|DICT|INTERRES
    95   49   50 1    
    96   49  115 1    
    97   50   51 1    
    98   50   52 1    
    99   50  116 1    
   100   51  117 1    
   101   51  118 1    
   102   51  119 1    
   103   52   53 2    
   104   52   54 am   BACKBONE|DICT|INTERRES
   105   54   55 1    
   106   54  120 1    
   107   55   56 1    
   108   55   57 1    
   109   55  121 1    
   110   56  122 1    
   111   56  123 1    
   112   56  124 1    
   113   57   58 2    
   114   57   59 am   BACKBONE|DICT|INTERRES
   115   59   60 1    
   116   59  125 1    
   117   60   61 1    
   118   60   62 1    
   119   60  126 1    
   120   61  127 1    
   121   61  128 1    
   122   61  129 1    
   123   62   63 2    
   124   62   64 am   BACKBONE|DICT|INTERRES
   125   64   65 1    
   126   64  130 1    
   127   65   66 1    
   128   65   69 1    
   129   65  131 1    
   130   66   67 am   BACKBONE|DICT|INTERRES
   131   66   68 2    
   132   67  132 1    
   133   67  133 1    
   134   69   70 1    
   135   69  134 1    
   136   69  135 1    
   137   70   71 1    
   138   71  136 1    
   139   71  137 1    
@<TRIPOS>SUBSTRUCTURE
     1 UNK         1 GROUP             0       ****    0 ROOT    
