@<TRIPOS>MOLECULE
3R137
137   139    1
SMALL
USER_CHARGES


@<TRIPOS>ATOM
      1 CA         29.9678    0.5828   -0.4751 C.3       0 UNK        -0.2020 
      2 C          29.3014   -0.6214   -1.1221 C.2       0 UNK         0.4855 
      3 O          28.9192   -0.5534   -2.2890 O.2       0 UNK        -0.5197 
      4 N          29.1547   -1.7223   -0.3748 N.am      1 UNK        -0.4892 
      5 CA         28.5489   -2.9803   -0.8263 C.3       1 UNK         0.0835 
      6 C6         29.0533   -4.1949    0.0002 C.3       12 UNK        -0.0855 
      7 S7         30.8712   -4.3724    0.0150 S.3       12 UNK        -0.2931 
      8 C8         31.1402   -5.7392   -1.1587 C.3       12 UNK         0.0378 
      9 C9         31.0647   -5.2618   -2.6008 C.ar      12 UNK        -0.0802 
     10 C10        32.1558   -4.5974   -3.1710 C.ar      12 UNK        -0.0944 
     11 C11        32.0983   -4.1469   -4.4923 C.ar      12 UNK        -0.0787 
     12 C12        30.9479   -4.3759   -5.2485 C.ar      12 UNK        -0.0862 
     13 C13        29.8436   -5.0183   -4.6838 C.ar      12 UNK        -0.0733 
     14 C14        29.9107   -5.4736   -3.3629 C.ar      12 UNK        -0.0832 
     15 C15        28.5680   -5.1804   -5.4964 C.3       12 UNK         0.0240 
     16 S16        27.2517   -4.0614   -4.9204 S.3       12 UNK        -0.2522 
     17 C17        27.9921   -2.4035   -5.1406 C.3       12 UNK        -0.0967 
     18 CA         27.3996   -1.6073   -6.3272 C.3       5 UNK         0.0660 
     19 N          25.9408   -1.5025   -6.2517 N.am      5 UNK        -0.4015 
     20 C          25.0965   -1.6561   -7.2800 C.2       4 UNK         0.4946 
     21 O          25.4470   -2.0003   -8.4089 O.2       4 UNK        -0.5353 
     22 CA         23.5941   -1.4185   -7.0176 C.3       4 UNK         0.0277 
     23 CB         22.8195   -2.7454   -7.0952 C.3       4 UNK        -0.1981 
     24 N          23.2989   -0.7785   -5.7324 N.am      4 UNK        -0.4209 
     25 C          23.5474    0.5038   -5.4307 C.2       3 UNK         0.4942 
     26 O          24.0269    1.3138   -6.2217 O.2       3 UNK        -0.5208 
     27 CA         23.2900    0.9268   -3.9713 C.3       3 UNK         0.0250 
     28 CB         21.8247    1.3488   -3.7804 C.3       3 UNK        -0.1990 
     29 N          23.6389   -0.1136   -2.9919 N.am      3 UNK        -0.4232 
     30 C          24.8565   -0.6619   -2.8788 C.2       2 UNK         0.4993 
     31 O          25.8136   -0.3274   -3.5811 O.2       2 UNK        -0.5286 
     32 CA         25.0161   -1.8196   -1.8883 C.3       2 UNK         0.0209 
     33 CB         24.2959   -3.0772   -2.4197 C.3       2 UNK        -0.1931 
     34 N          26.4447   -2.0820   -1.7172 N.am      2 UNK        -0.4546 
     35 C          27.0072   -2.8706   -0.7973 C.2       1 UNK         0.5154 
     36 O          26.3608   -3.4669    0.0671 O.2       1 UNK        -0.5181 
     37 C          28.0169   -0.1954   -6.3808 C.2       5 UNK         0.5014 
     38 O          28.9812    0.0217   -7.1165 O.2       5 UNK        -0.5248 
     39 N          27.4517    0.7452   -5.6077 N.am      6 UNK        -0.4434 
     40 CA         27.8129    2.1635   -5.6051 C.3       6 UNK         0.0363 
     41 CB         27.0889    2.8717   -4.4499 C.3       6 UNK        -0.1936 
     42 C          27.5099    2.8521   -6.9471 C.2       6 UNK         0.5081 
     43 O          28.3093    3.6708   -7.3995 O.2       6 UNK        -0.5248 
     44 N          26.3829    2.4915   -7.5728 N.am      7 UNK        -0.4718 
     45 CA         26.0732    2.8233   -8.9619 C.3       7 UNK         0.0273 
     46 CB         24.5491    2.7814   -9.1570 C.3       7 UNK        -0.1935 
     47 C          26.7570    1.8252   -9.9107 C.2       7 UNK         0.5018 
     48 O          26.9508    0.6651   -9.5427 O.2       7 UNK        -0.5186 
     49 N          27.0656    2.2835  -11.1308 N.am      8 UNK        -0.4240 
     50 CA         27.6424    1.5404  -12.2611 C.3       8 UNK         0.0235 
     51 CB         26.7068    0.4091  -12.7360 C.3       8 UNK        -0.2000 
     52 C          29.0767    1.0277  -12.0331 C.2       8 UNK         0.4941 
     53 O          29.9695    1.4146  -12.7882 O.2       8 UNK        -0.5273 
     54 N          29.2771    0.1672  -11.0255 N.am      9 UNK        -0.4262 
     55 CA         30.5834   -0.3848  -10.6559 C.3       9 UNK         0.0264 
     56 CB         30.4136   -1.6708   -9.8293 C.3       9 UNK        -0.1955 
     57 C          31.4459    0.6623   -9.9353 C.2       9 UNK         0.5031 
     58 O          32.5614    0.9301  -10.3844 O.2       9 UNK        -0.5390 
     59 N          30.8912    1.2627   -8.8703 N.am      10 UNK        -0.4204 
     60 CA         31.4234    2.4106   -8.1247 C.3       10 UNK         0.0237 
     61 CB         31.3526    3.6870   -8.9909 C.3       10 UNK        -0.1985 
     62 C          32.8233    2.1678   -7.5276 C.2       10 UNK         0.4970 
     63 O          33.7047    3.0215   -7.6469 O.2       10 UNK        -0.4914 
     64 N          33.0006    1.0023   -6.8943 N.am      11 UNK        -0.4285 
     65 CA         34.2503    0.5842   -6.2373 C.3       11 UNK         0.1007 
     66 C          34.6179    1.3578   -4.9349 C.2       11 UNK         0.5703 
     67 N          33.7242    2.1488   -4.3522 N.am      11 UNK        -0.7361 
     68 O          35.7432    1.2471   -4.4536 O.2       11 UNK        -0.4986 
     69 C69        34.2968   -0.9532   -6.0373 C.3       12 UNK        -0.0947 
     70 S70        32.9115   -1.5914   -5.0396 S.3       12 UNK        -0.2240 
     71 C71        33.2542   -3.3736   -5.1011 C.3       12 UNK         0.0194 
     72 H72        30.2546    0.3857    0.5577 H         1 UNK         0.0906 
     73 H73        30.8646    0.8560   -1.0306 H         1 UNK         0.0906 
     74 H74        29.2891    1.4353   -0.4833 H         1 UNK         0.0906 
     75 H75        29.4827   -1.7220    0.5806 H         1 UNK         0.3140 
     76 H76        28.8391   -3.1504   -1.8663 H         1 UNK         0.1085 
     77 H77        28.7318   -4.1068    1.0399 H         1 UNK         0.0836 
     78 H78        28.6041   -5.1178   -0.3714 H         1 UNK         0.0836 
     79 H79        32.1269   -6.1671   -0.9747 H         1 UNK         0.0731 
     80 H80        30.4256   -6.5422   -0.9719 H         1 UNK         0.0731 
     81 H81        33.0416   -4.4143   -2.5778 H         1 UNK         0.1312 
     82 H82        30.8989   -4.0118   -6.2660 H         1 UNK         0.1406 
     83 H83        29.0555   -5.9705   -2.9251 H         1 UNK         0.1631 
     84 H84        28.2172   -6.2105   -5.4195 H         1 UNK         0.0717 
     85 H85        28.7524   -4.9968   -6.5561 H         1 UNK         0.0717 
     86 H86        27.8386   -1.8638   -4.2082 H         1 UNK         0.0934 
     87 H87        29.0731   -2.4780   -5.2503 H         1 UNK         0.0934 
     88 H88        27.6839   -2.1210   -7.2480 H         1 UNK         0.0739 
     89 H89        25.5744   -1.2166   -5.3522 H         1 UNK         0.3093 
     90 H90        23.2318   -0.7624   -7.8123 H         1 UNK         0.0818 
     91 H91        21.7464   -2.5873   -6.9861 H         1 UNK         0.0819 
     92 H92        22.9754   -3.2335   -8.0583 H         1 UNK         0.0819 
     93 H93        23.1389   -3.4447   -6.3213 H         1 UNK         0.0819 
     94 H94        22.9063   -1.3686   -5.0135 H         1 UNK         0.3041 
     95 H95        23.9223    1.7931   -3.7668 H         1 UNK         0.0784 
     96 H96        21.5505    2.1337   -4.4870 H         1 UNK         0.0793 
     97 H97        21.1382    0.5157   -3.9362 H         1 UNK         0.0793 
     98 H98        21.6526    1.7439   -2.7790 H         1 UNK         0.0793 
     99 H99        22.8957   -0.4375   -2.3889 H         1 UNK         0.3024 
    100 H100       24.5938   -1.5204   -0.9267 H         1 UNK         0.1171 
    101 H101       24.6949   -3.3909   -3.3850 H         1 UNK         0.0786 
    102 H102       24.3917   -3.9182   -1.7332 H         1 UNK         0.0786 
    103 H103       23.2280   -2.8991   -2.5501 H         1 UNK         0.0786 
    104 H104       27.0476   -1.5343   -2.3273 H         1 UNK         0.2977 
    105 H105       26.7362    0.4599   -4.9425 H         1 UNK         0.3127 
    106 H106       28.8884    2.2307   -5.4292 H         1 UNK         0.0770 
    107 H107       26.0062    2.8394   -4.5748 H         1 UNK         0.0814 
    108 H108       27.3808    3.9210   -4.3923 H         1 UNK         0.0814 
    109 H109       27.3297    2.4123   -3.4906 H         1 UNK         0.0814 
    110 H110       25.7575    1.8334   -7.1183 H         1 UNK         0.2983 
    111 H111       26.4298    3.8324   -9.1810 H         1 UNK         0.0947 
    112 H112       24.2741    3.0701  -10.1721 H         1 UNK         0.0806 
    113 H113       24.0430    3.4653   -8.4753 H         1 UNK         0.0806 
    114 H114       24.1494    1.7812   -8.9821 H         1 UNK         0.0806 
    115 H115       26.8821    3.2593  -11.3210 H         1 UNK         0.3000 
    116 H116       27.7029    2.2623  -13.0775 H         1 UNK         0.0850 
    117 H117       27.1103   -0.0817  -13.6227 H         1 UNK         0.0810 
    118 H118       25.7226    0.7956  -13.0003 H         1 UNK         0.0810 
    119 H119       26.5691   -0.3608  -11.9762 H         1 UNK         0.0810 
    120 H120       28.4872   -0.0187  -10.4105 H         1 UNK         0.3040 
    121 H121       31.1074   -0.6591  -11.5744 H         1 UNK         0.0766 
    122 H122       29.7971   -1.5171   -8.9459 H         1 UNK         0.0812 
    123 H123       31.3794   -2.0503   -9.4929 H         1 UNK         0.0812 
    124 H124       29.9462   -2.4571  -10.4221 H         1 UNK         0.0812 
    125 H125       30.0157    0.8864   -8.5104 H         1 UNK         0.3205 
    126 H126       30.7575    2.5530   -7.2733 H         1 UNK         0.0754 
    127 H127       31.6267    4.5694   -8.4115 H         1 UNK         0.0769 
    128 H128       30.3432    3.8512   -9.3685 H         1 UNK         0.0769 
    129 H129       32.0262    3.6340   -9.8469 H         1 UNK         0.0769 
    130 H130       32.2272    0.3570   -6.8232 H         1 UNK         0.2981 
    131 H131       35.0548    0.8229   -6.9358 H         1 UNK         0.0541 
    132 H132       32.7980    2.2414   -4.7348 H         1 UNK         0.3459 
    133 H133       33.9791    2.6476   -3.5147 H         1 UNK         0.3459 
    134 H134       35.2379   -1.2587   -5.5761 H         1 UNK         0.0612 
    135 H135       34.2684   -1.4450   -7.0110 H         1 UNK         0.0612 
    136 H136       33.4027   -3.6846   -6.1364 H         1 UNK         0.0624 
    137 H137       34.1846   -3.5845   -4.5717 H         1 UNK         0.0624 
@<TRIPOS>BOND
     1    1    2 1    
     2    1   72 1    
     3    1   73 1    
     4    1   74 1    
     5    2    3 2    
     6    2    4 am   BACKBONE|DICT|INTERRES
     7    4    5 1    
     8    4   75 1    
     9    5    6 1    
    10    5   35 1    
    11    5   76 1    
    12    6    7 1    
    13    6   77 1    
    14    6   78 1    
    15    7    8 1    
    16    8    9 1    
    17    8   79 1    
    18    8   80 1    
    19    9   10 ar   
    20    9   14 ar   
    21   10   11 ar   
    22   10   81 1    
    23   11   12 ar   
    24   11   71 1    
    25   12   13 ar   
    26   12   82 1    
    27   13   14 ar   
    28   13   15 1    
    29   14   83 1    
    30   15   16 1    
    31   15   84 1    
    32   15   85 1    
    33   16   17 1    
    34   17   18 1    
    35   17   86 1    
    36   17   87 1    
    37   18   19 1    
    38   18   37 1    
    39   18   88 1    
    40   19   20 am   BACKBONE|DICT|INTERRES
    41   19   89 1    
    42   20   21 2    
    43   20   22 1    
    44   22   23 1    
    45   22   24 1    
    46   22   90 1    
    47   23   91 1    
    48   23   92 1    
    49   23   93 1    
    50   24   25 am   BACKBONE|DICT|INTERRES
    51   24   94 1    
    52   25   26 2    
    53   25   27 1    
    54   27   28 1    
    55   27   29 1    
    56   27   95 1    
    57   28   96 1    
    58   28   97 1    
    59   28   98 1    
    60   29   30 am   BACKBONE|DICT|INTERRES
    61   29   99 1    
    62   30   31 2    
    63   30   32 1    
    64   32   33 1    
    65   32   34 1    
    66   32  100 1    
    67   33  101 1    
    68   33  102 1    
    69   33  103 1    
    70   34   35 am   BACKBONE|DICT|INTERRES
    71   34  104 1    
    72   35   36 2    
    73   37   38 2    
    74   37   39 am   BACKBONE|DICT|INTERRES
    75   39   40 1    
    76   39  105 1    
    77   40   41 1    
    78   40   42 1    
    79   40  106 1    
    80   41  107 1    
    81   41  108 1    
    82   41  109 1    
    83   42   43 2    
    84   42   44 am   BACKBONE|DICT|INTERRES
    85   44   45 1    
    86   44  110 1    
    87   45   46 1    
    88   45   47 1    
    89   45  111 1    
    90   46  112 1    
    91   46  113 1    
    92   46  114 1    
    93   47   48 2    
    94   47   49 am   BACKBONE|DICT|INTERRES
    95   49   50 1    
    96   49  115 1    
    97   50   51 1    
    98   50   52 1    
    99   50  116 1    
   100   51  117 1    
   101   51  118 1    
   102   51  119 1    
   103   52   53 2    
   104   52   54 am   BACKBONE|DICT|INTERRES
   105   54   55 1    
   106   54  120 1    
   107   55   56 1    
   108   55   57 1    
   109   55  121 1    
   110   56  122 1    
   111   56  123 1    
   112   56  124 1    
   113   57   58 2    
   114   57   59 am   BACKBONE|DICT|INTERRES
   115   59   60 1    
   116   59  125 1    
   117   60   61 1    
   118   60   62 1    
   119   60  126 1    
   120   61  127 1    
   121   61  128 1    
   122   61  129 1    
   123   62   63 2    
   124   62   64 am   BACKBONE|DICT|INTERRES
   125   64   65 1    
   126   64  130 1    
   127   65   66 1    
   128   65   69 1    
   129   65  131 1    
   130   66   67 am   BACKBONE|DICT|INTERRES
   131   66   68 2    
   132   67  132 1    
   133   67  133 1    
   134   69   70 1    
   135   69  134 1    
   136   69  135 1    
   137   70   71 1    
   138   71  136 1    
   139   71  137 1    
@<TRIPOS>SUBSTRUCTURE
     1 UNK         1 GROUP             0       ****    0 ROOT    
