@<TRIPOS>MOLECULE
3R137
137   139    1
SMALL
USER_CHARGES


@<TRIPOS>ATOM
      1 CA         28.3854   -5.5339   -8.5729 C.3       0 UNK        -0.2020 
      2 C          28.0621   -5.9198   -7.1375 C.2       0 UNK         0.4855 
      3 O          27.6072   -7.0363   -6.8894 O.2       0 UNK        -0.5197 
      4 N          28.2884   -4.9996   -6.1902 N.am      1 UNK        -0.4892 
      5 CA         27.9753   -5.1726   -4.7639 C.3       1 UNK         0.0835 
      6 C6         28.7276   -4.1241   -3.9027 C.3       12 UNK        -0.0855 
      7 S7         28.8826   -4.6183   -2.1541 S.3       12 UNK        -0.2931 
      8 C8         30.5068   -3.9165   -1.7112 C.3       12 UNK         0.0378 
      9 C9         30.5384   -2.3905   -1.7348 C.ar      12 UNK        -0.0802 
     10 C10        31.6008   -1.7256   -2.3573 C.ar      12 UNK        -0.0944 
     11 C11        31.6765   -0.3295   -2.3391 C.ar      12 UNK        -0.0787 
     12 C12        30.6715    0.4042   -1.7018 C.ar      12 UNK        -0.0862 
     13 C13        29.6003   -0.2450   -1.0786 C.ar      12 UNK        -0.0733 
     14 C14        29.5439   -1.6417   -1.0933 C.ar      12 UNK        -0.0832 
     15 C15        28.5280    0.5603   -0.3518 C.3       12 UNK         0.0240 
     16 S16        26.9556    0.6535   -1.2735 S.3       12 UNK        -0.2522 
     17 C17        27.4621    1.5061   -2.8035 C.3       12 UNK        -0.0967 
     18 CA         27.2228    0.5962   -4.0430 C.3       5 UNK         0.0660 
     19 N          25.8070    0.5051   -4.4147 N.am      5 UNK        -0.4015 
     20 C          25.0527    1.4825   -4.9467 C.2       4 UNK         0.4946 
     21 O          25.4859    2.6032   -5.2226 O.2       4 UNK        -0.5353 
     22 CA         23.5667    1.1807   -5.2370 C.3       4 UNK         0.0277 
     23 CB         23.3302    1.0487   -6.7504 C.3       4 UNK        -0.1981 
     24 N          23.0683   -0.0281   -4.5802 N.am      4 UNK        -0.4209 
     25 C          22.8586   -0.1707   -3.2638 C.2       3 UNK         0.4942 
     26 O          22.9282    0.7567   -2.4571 O.2       3 UNK        -0.5208 
     27 CA         22.5433   -1.5935   -2.7539 C.3       3 UNK         0.0250 
     28 CB         21.0506   -1.7204   -2.4071 C.3       3 UNK        -0.1990 
     29 N          22.9166   -2.6810   -3.6732 N.am      3 UNK        -0.4232 
     30 C          24.1538   -2.9206   -4.1314 C.2       2 UNK         0.4993 
     31 O          25.1309   -2.2218   -3.8494 O.2       2 UNK        -0.5286 
     32 CA         24.3010   -4.0767   -5.1349 C.3       2 UNK         0.0209 
     33 CB         23.6879   -3.6944   -6.4938 C.3       2 UNK        -0.1931 
     34 N          25.7124   -4.4018   -5.3366 N.am      2 UNK        -0.4546 
     35 C          26.4522   -5.1364   -4.4950 C.2       1 UNK         0.5154 
     36 O          25.9768   -5.7704   -3.5509 O.2       1 UNK        -0.5181 
     37 C          28.0839    0.9292   -5.2776 C.2       5 UNK         0.5014 
     38 O          28.0167    0.1882   -6.2613 O.2       5 UNK        -0.5248 
     39 N          28.8702    2.0144   -5.2256 N.am      6 UNK        -0.4434 
     40 CA         29.8497    2.4109   -6.2408 C.3       6 UNK         0.0363 
     41 CB         30.5957    3.6679   -5.7691 C.3       6 UNK        -0.1936 
     42 C          29.2799    2.6169   -7.6516 C.2       6 UNK         0.5081 
     43 O          30.0058    2.3904   -8.6182 O.2       6 UNK        -0.5248 
     44 N          27.9958    2.9847   -7.7542 N.am      7 UNK        -0.4718 
     45 CA         27.2756    3.1128   -9.0240 C.3       7 UNK         0.0273 
     46 CB         25.9306    3.8109   -8.7722 C.3       7 UNK        -0.1935 
     47 C          27.0707    1.7732   -9.7596 C.2       7 UNK         0.5018 
     48 O          26.9133    1.7859  -10.9811 O.2       7 UNK        -0.5186 
     49 N          27.0869    0.6555   -9.0199 N.am      8 UNK        -0.4240 
     50 CA         27.0280   -0.7035   -9.5599 C.3       8 UNK         0.0235 
     51 CB         25.9996   -1.5240   -8.7625 C.3       8 UNK        -0.2000 
     52 C          28.4045   -1.3815   -9.5062 C.2       8 UNK         0.4941 
     53 O          28.7918   -2.0441  -10.4683 O.2       8 UNK        -0.5273 
     54 N          29.1051   -1.2296   -8.3747 N.am      9 UNK        -0.4262 
     55 CA         30.3669   -1.9048   -8.0708 C.3       9 UNK         0.0264 
     56 CB         30.5614   -1.9023   -6.5477 C.3       9 UNK        -0.1955 
     57 C          31.6006   -1.3124   -8.7731 C.2       9 UNK         0.5031 
     58 O          32.5950   -2.0283   -8.8988 O.2       9 UNK        -0.5390 
     59 N          31.5320   -0.0408   -9.2015 N.am      10 UNK        -0.4204 
     60 CA         32.6105    0.7361   -9.8299 C.3       10 UNK         0.0237 
     61 CB         32.9581    0.1720  -11.2249 C.3       10 UNK        -0.1985 
     62 C          33.8371    0.8815   -8.9067 C.2       10 UNK         0.4970 
     63 O          34.9585    0.5636   -9.3075 O.2       10 UNK        -0.4914 
     64 N          33.5868    1.3427   -7.6737 N.am      11 UNK        -0.4285 
     65 CA         34.5899    1.4953   -6.6036 C.3       11 UNK         0.1007 
     66 C          35.6796    2.5769   -6.8658 C.2       11 UNK         0.5703 
     67 N          35.4914    3.5004   -7.8015 N.am      11 UNK        -0.7361 
     68 O          36.7166    2.5745   -6.2065 O.2       11 UNK        -0.4986 
     69 C69        33.9296    1.7258   -5.2169 C.3       12 UNK        -0.0947 
     70 S70        32.6932    0.4584   -4.7835 S.3       12 UNK        -0.2240 
     71 C71        32.8593    0.3867   -2.9771 C.3       12 UNK         0.0194 
     72 H72        28.4075   -4.4532   -8.7069 H         1 UNK         0.0906 
     73 H73        29.3548   -5.9381   -8.8630 H         1 UNK         0.0906 
     74 H74        27.6325   -5.9356   -9.2506 H         1 UNK         0.0906 
     75 H75        28.6794   -4.1076   -6.4529 H         1 UNK         0.3140 
     76 H76        28.3260   -6.1665   -4.4753 H         1 UNK         0.1085 
     77 H77        28.2531   -3.1415   -3.9581 H         1 UNK         0.0836 
     78 H78        29.7387   -3.9935   -4.2910 H         1 UNK         0.0836 
     79 H79        30.7669   -4.2508   -0.7061 H         1 UNK         0.0731 
     80 H80        31.2642   -4.3332   -2.3772 H         1 UNK         0.0731 
     81 H81        32.3824   -2.2924   -2.8448 H         1 UNK         0.1312 
     82 H82        30.7327    1.4837   -1.6785 H         1 UNK         0.1406 
     83 H83        28.7250   -2.1470   -0.5990 H         1 UNK         0.1631 
     84 H84        28.8800    1.5724   -0.1457 H         1 UNK         0.0717 
     85 H85        28.3354    0.1057    0.6210 H         1 UNK         0.0717 
     86 H86        28.5085    1.7864   -2.6959 H         1 UNK         0.0934 
     87 H87        26.9102    2.4440   -2.8853 H         1 UNK         0.0934 
     88 H88        27.5255   -0.4179   -3.7750 H         1 UNK         0.0739 
     89 H89        25.3891   -0.4063   -4.2418 H         1 UNK         0.3093 
     90 H90        22.9848    2.0288   -4.8699 H         1 UNK         0.0818 
     91 H91        22.2845    0.8367   -6.9744 H         1 UNK         0.0819 
     92 H92        23.5830    1.9746   -7.2659 H         1 UNK         0.0819 
     93 H93        23.9368    0.2546   -7.1861 H         1 UNK         0.0819 
     94 H94        22.9656   -0.8466   -5.1608 H         1 UNK         0.3041 
     95 H95        23.1207   -1.7334   -1.8376 H         1 UNK         0.0784 
     96 H96        20.7461   -0.9474   -1.6998 H         1 UNK         0.0793 
     97 H97        20.4206   -1.6184   -3.2916 H         1 UNK         0.0793 
     98 H98        20.8296   -2.6825   -1.9443 H         1 UNK         0.0793 
     99 H99        22.1660   -3.2897   -3.9683 H         1 UNK         0.3024 
    100 H100       23.7829   -4.9534   -4.7388 H         1 UNK         0.1171 
    101 H101       23.8343   -4.4847   -7.2307 H         1 UNK         0.0786 
    102 H102       24.1259   -2.7797   -6.8937 H         1 UNK         0.0786 
    103 H103       22.6127   -3.5312   -6.4117 H         1 UNK         0.0786 
    104 H104       26.1909   -3.9046   -6.0716 H         1 UNK         0.2977 
    105 H105       28.8253    2.5967   -4.4028 H         1 UNK         0.3127 
    106 H106       30.5686    1.5960   -6.3189 H         1 UNK         0.0770 
    107 H107       29.9208    4.5165   -5.6507 H         1 UNK         0.0814 
    108 H108       31.3637    3.9602   -6.4869 H         1 UNK         0.0814 
    109 H109       31.0948    3.4991   -4.8147 H         1 UNK         0.0814 
    110 H110       27.4616    3.1217   -6.9058 H         1 UNK         0.2983 
    111 H111       27.8704    3.7491   -9.6834 H         1 UNK         0.0947 
    112 H112       25.3561    3.9044   -9.6950 H         1 UNK         0.0806 
    113 H113       26.0748    4.8169   -8.3780 H         1 UNK         0.0806 
    114 H114       25.3202    3.2582   -8.0593 H         1 UNK         0.0806 
    115 H115       27.2544    0.7391   -8.0224 H         1 UNK         0.3000 
    116 H116       26.7088   -0.6875  -10.6043 H         1 UNK         0.0850 
    117 H117       25.9780   -2.5614   -9.0998 H         1 UNK         0.0810 
    118 H118       24.9947   -1.1235   -8.8935 H         1 UNK         0.0810 
    119 H119       26.2227   -1.5297   -7.6946 H         1 UNK         0.0810 
    120 H120       28.6963   -0.6841   -7.6158 H         1 UNK         0.3040 
    121 H121       30.2866   -2.9429   -8.3986 H         1 UNK         0.0766 
    122 H122       30.6165   -0.8872   -6.1591 H         1 UNK         0.0812 
    123 H123       31.4796   -2.4166   -6.2599 H         1 UNK         0.0812 
    124 H124       29.7339   -2.3932   -6.0409 H         1 UNK         0.0812 
    125 H125       30.6799    0.4830   -9.0304 H         1 UNK         0.3205 
    126 H126       32.2208    1.7440   -9.9789 H         1 UNK         0.0754 
    127 H127       33.6797    0.8115  -11.7347 H         1 UNK         0.0769 
    128 H128       32.0733    0.1127  -11.8587 H         1 UNK         0.0769 
    129 H129       33.3946   -0.8254  -11.1653 H         1 UNK         0.0769 
    130 H130       32.6379    1.5735   -7.4252 H         1 UNK         0.2981 
    131 H131       35.1259    0.5458   -6.5497 H         1 UNK         0.0541 
    132 H132       36.2065    4.1920   -7.9625 H         1 UNK         0.3459 
    133 H133       34.6467    3.5102   -8.3493 H         1 UNK         0.3459 
    134 H134       33.4417    2.7011   -5.1830 H         1 UNK         0.0612 
    135 H135       34.6942    1.7394   -4.4376 H         1 UNK         0.0612 
    136 H136       33.7880   -0.1250   -2.7204 H         1 UNK         0.0624 
    137 H137       32.9439    1.4008   -2.5833 H         1 UNK         0.0624 
@<TRIPOS>BOND
     1    1    2 1    
     2    1   72 1    
     3    1   73 1    
     4    1   74 1    
     5    2    3 2    
     6    2    4 am   BACKBONE|DICT|INTERRES
     7    4    5 1    
     8    4   75 1    
     9    5    6 1    
    10    5   35 1    
    11    5   76 1    
    12    6    7 1    
    13    6   77 1    
    14    6   78 1    
    15    7    8 1    
    16    8    9 1    
    17    8   79 1    
    18    8   80 1    
    19    9   10 ar   
    20    9   14 ar   
    21   10   11 ar   
    22   10   81 1    
    23   11   12 ar   
    24   11   71 1    
    25   12   13 ar   
    26   12   82 1    
    27   13   14 ar   
    28   13   15 1    
    29   14   83 1    
    30   15   16 1    
    31   15   84 1    
    32   15   85 1    
    33   16   17 1    
    34   17   18 1    
    35   17   86 1    
    36   17   87 1    
    37   18   19 1    
    38   18   37 1    
    39   18   88 1    
    40   19   20 am   BACKBONE|DICT|INTERRES
    41   19   89 1    
    42   20   21 2    
    43   20   22 1    
    44   22   23 1    
    45   22   24 1    
    46   22   90 1    
    47   23   91 1    
    48   23   92 1    
    49   23   93 1    
    50   24   25 am   BACKBONE|DICT|INTERRES
    51   24   94 1    
    52   25   26 2    
    53   25   27 1    
    54   27   28 1    
    55   27   29 1    
    56   27   95 1    
    57   28   96 1    
    58   28   97 1    
    59   28   98 1    
    60   29   30 am   BACKBONE|DICT|INTERRES
    61   29   99 1    
    62   30   31 2    
    63   30   32 1    
    64   32   33 1    
    65   32   34 1    
    66   32  100 1    
    67   33  101 1    
    68   33  102 1    
    69   33  103 1    
    70   34   35 am   BACKBONE|DICT|INTERRES
    71   34  104 1    
    72   35   36 2    
    73   37   38 2    
    74   37   39 am   BACKBONE|DICT|INTERRES
    75   39   40 1    
    76   39  105 1    
    77   40   41 1    
    78   40   42 1    
    79   40  106 1    
    80   41  107 1    
    81   41  108 1    
    82   41  109 1    
    83   42   43 2    
    84   42   44 am   BACKBONE|DICT|INTERRES
    85   44   45 1    
    86   44  110 1    
    87   45   46 1    
    88   45   47 1    
    89   45  111 1    
    90   46  112 1    
    91   46  113 1    
    92   46  114 1    
    93   47   48 2    
    94   47   49 am   BACKBONE|DICT|INTERRES
    95   49   50 1    
    96   49  115 1    
    97   50   51 1    
    98   50   52 1    
    99   50  116 1    
   100   51  117 1    
   101   51  118 1    
   102   51  119 1    
   103   52   53 2    
   104   52   54 am   BACKBONE|DICT|INTERRES
   105   54   55 1    
   106   54  120 1    
   107   55   56 1    
   108   55   57 1    
   109   55  121 1    
   110   56  122 1    
   111   56  123 1    
   112   56  124 1    
   113   57   58 2    
   114   57   59 am   BACKBONE|DICT|INTERRES
   115   59   60 1    
   116   59  125 1    
   117   60   61 1    
   118   60   62 1    
   119   60  126 1    
   120   61  127 1    
   121   61  128 1    
   122   61  129 1    
   123   62   63 2    
   124   62   64 am   BACKBONE|DICT|INTERRES
   125   64   65 1    
   126   64  130 1    
   127   65   66 1    
   128   65   69 1    
   129   65  131 1    
   130   66   67 am   BACKBONE|DICT|INTERRES
   131   66   68 2    
   132   67  132 1    
   133   67  133 1    
   134   69   70 1    
   135   69  134 1    
   136   69  135 1    
   137   70   71 1    
   138   71  136 1    
   139   71  137 1    
@<TRIPOS>SUBSTRUCTURE
     1 UNK         1 GROUP             0       ****    0 ROOT    
