@<TRIPOS>MOLECULE
3R137
137   139    1
SMALL
USER_CHARGES


@<TRIPOS>ATOM
      1 CA         28.9728   -7.9021   -2.5840 C.3       0 UNK        -0.2020 
      2 C          27.8132   -6.9933   -2.2054 C.2       0 UNK         0.4855 
      3 O          26.8342   -7.4600   -1.6228 O.2       0 UNK        -0.5197 
      4 N          27.9190   -5.6981   -2.5281 N.am      1 UNK        -0.4892 
      5 CA         26.8877   -4.6791   -2.2940 C.3       1 UNK         0.0835 
      6 C6         27.4519   -3.2391   -2.4223 C.3       12 UNK        -0.0855 
      7 S7         28.4259   -2.9571   -3.9487 S.3       12 UNK        -0.2931 
      8 C8         30.1200   -2.8087   -3.2937 C.3       12 UNK         0.0378 
      9 C9         30.5280   -1.3533   -3.1155 C.ar      12 UNK        -0.0802 
     10 C10        31.4235   -0.7654   -4.0133 C.ar      12 UNK        -0.0944 
     11 C11        31.8156    0.5669   -3.8605 C.ar      12 UNK        -0.0787 
     12 C12        31.2933    1.3212   -2.8077 C.ar      12 UNK        -0.0862 
     13 C13        30.3779    0.7526   -1.9160 C.ar      12 UNK        -0.0733 
     14 C14        30.0156   -0.5908   -2.0609 C.ar      12 UNK        -0.0832 
     15 C15        29.7423    1.6047   -0.8271 C.3       12 UNK         0.0240 
     16 S16        28.0058    2.0103   -1.2156 S.3       12 UNK        -0.2522 
     17 C17        28.1543    2.8113   -2.8510 C.3       12 UNK        -0.0967 
     18 CA         27.8200    1.8208   -4.0027 C.3       5 UNK         0.0660 
     19 N          26.4204    1.3781   -3.9817 N.am      5 UNK        -0.4015 
     20 C          25.3220    2.0888   -4.2669 C.2       4 UNK         0.4946 
     21 O          25.3414    3.2095   -4.7805 O.2       4 UNK        -0.5353 
     22 CA         23.9705    1.4386   -3.9012 C.3       4 UNK         0.0277 
     23 CB         22.8183    2.4614   -3.9007 C.3       4 UNK        -0.1981 
     24 N          23.5960    0.3149   -4.7643 N.am      4 UNK        -0.4209 
     25 C          24.2103   -0.8725   -4.8153 C.2       3 UNK         0.4942 
     26 O          25.2176   -1.1504   -4.1587 O.2       3 UNK        -0.5208 
     27 CA         23.5825   -1.9303   -5.7329 C.3       3 UNK         0.0250 
     28 CB         23.5521   -1.4956   -7.2115 C.3       3 UNK        -0.1990 
     29 N          24.3401   -3.1674   -5.5803 N.am      3 UNK        -0.4232 
     30 C          23.8882   -4.4050   -5.8022 C.2       2 UNK         0.4993 
     31 O          22.7739   -4.6540   -6.2645 O.2       2 UNK        -0.5286 
     32 CA         24.8295   -5.5717   -5.4449 C.3       2 UNK         0.0209 
     33 CB         25.5122   -6.1130   -6.7120 C.3       2 UNK        -0.1931 
     34 N          25.8622   -5.2491   -4.4522 N.am      2 UNK        -0.4546 
     35 C          25.6400   -4.8964   -3.1767 C.2       1 UNK         0.5154 
     36 O          24.5170   -4.7720   -2.6858 O.2       1 UNK        -0.5181 
     37 C          28.2477    2.3342   -5.3902 C.2       5 UNK         0.5014 
     38 O          28.6539    1.5318   -6.2319 O.2       5 UNK        -0.5248 
     39 N          28.1100    3.6450   -5.6342 N.am      6 UNK        -0.4434 
     40 CA         28.3406    4.2851   -6.9330 C.3       6 UNK         0.0363 
     41 CB         28.2100    5.8083   -6.7778 C.3       6 UNK        -0.1936 
     42 C          27.4048    3.7732   -8.0453 C.2       6 UNK         0.5081 
     43 O          27.7808    3.8286   -9.2154 O.2       6 UNK        -0.5248 
     44 N          26.2244    3.2581   -7.6687 N.am      7 UNK        -0.4718 
     45 CA         25.3023    2.5708   -8.5760 C.3       7 UNK         0.0273 
     46 CB         23.9158    2.4793   -7.9213 C.3       7 UNK        -0.1935 
     47 C          25.7962    1.1726   -8.9957 C.2       7 UNK         0.5018 
     48 O          25.4179    0.7103  -10.0723 O.2       7 UNK        -0.5186 
     49 N          26.6199    0.5252   -8.1564 N.am      8 UNK        -0.4240 
     50 CA         27.2786   -0.7457   -8.4692 C.3       8 UNK         0.0235 
     51 CB         27.5541   -1.5378   -7.1777 C.3       8 UNK        -0.2000 
     52 C          28.5822   -0.5001   -9.2399 C.2       8 UNK         0.4941 
     53 O          28.8279   -1.1714  -10.2419 O.2       8 UNK        -0.5273 
     54 N          29.3851    0.4595   -8.7511 N.am      9 UNK        -0.4262 
     55 CA         30.6621    0.9291   -9.3054 C.3       9 UNK         0.0264 
     56 CB         30.4494    1.6074  -10.6751 C.3       9 UNK        -0.1955 
     57 C          31.7691   -0.1448   -9.3471 C.2       9 UNK         0.5031 
     58 O          32.7209   -0.0106  -10.1194 O.2       9 UNK        -0.5390 
     59 N          31.6609   -1.1703   -8.4878 N.am      10 UNK        -0.4204 
     60 CA         32.5907   -2.3044   -8.3897 C.3       10 UNK         0.0237 
     61 CB         31.9978   -3.3629   -7.4442 C.3       10 UNK        -0.1985 
     62 C          34.0234   -1.9248   -7.9634 C.2       10 UNK         0.4970 
     63 O          34.9433   -2.7168   -8.1710 O.2       10 UNK        -0.4914 
     64 N          34.1866   -0.7224   -7.3995 N.am      11 UNK        -0.4285 
     65 CA         35.4750   -0.0874   -7.0906 C.3       11 UNK         0.1007 
     66 C          36.2770    0.3632   -8.3479 C.2       11 UNK         0.5703 
     67 N          35.6807    0.4401   -9.5337 N.am      11 UNK        -0.7361 
     68 O          37.4686    0.6441   -8.2433 O.2       11 UNK        -0.4986 
     69 C69        35.3016    1.0970   -6.1014 C.3       12 UNK        -0.0947 
     70 S70        34.4860    0.6064   -4.5456 S.3       12 UNK        -0.2240 
     71 C71        32.7884    1.1870   -4.8488 C.3       12 UNK         0.0194 
     72 H72        28.6287   -8.6893   -3.2543 H         1 UNK         0.0906 
     73 H73        29.7731   -7.3570   -3.0842 H         1 UNK         0.0906 
     74 H74        29.3883   -8.3712   -1.6925 H         1 UNK         0.0906 
     75 H75        28.7416   -5.3681   -3.0131 H         1 UNK         0.3140 
     76 H76        26.5477   -4.7991   -1.2625 H         1 UNK         0.1085 
     77 H77        26.6488   -2.5013   -2.3776 H         1 UNK         0.0836 
     78 H78        28.0735   -3.0277   -1.5522 H         1 UNK         0.0836 
     79 H79        30.2209   -3.3439   -2.3487 H         1 UNK         0.0731 
     80 H80        30.7980   -3.3057   -3.9892 H         1 UNK         0.0731 
     81 H81        31.8281   -1.3445   -4.8301 H         1 UNK         0.1312 
     82 H82        31.5821    2.3575   -2.6963 H         1 UNK         0.1406 
     83 H83        29.3070   -1.0285   -1.3721 H         1 UNK         0.1631 
     84 H84        30.3023    2.5297   -0.6803 H         1 UNK         0.0717 
     85 H85        29.7792    1.0700    0.1230 H         1 UNK         0.0717 
     86 H86        27.4808    3.6697   -2.8662 H         1 UNK         0.0934 
     87 H87        29.1613    3.2183   -2.9565 H         1 UNK         0.0934 
     88 H88        28.4059    0.9146   -3.8489 H         1 UNK         0.0739 
     89 H89        26.2719    0.4130   -3.6989 H         1 UNK         0.3093 
     90 H90        24.0688    1.0585   -2.8818 H         1 UNK         0.0818 
     91 H91        21.8915    2.0177   -3.5365 H         1 UNK         0.0819 
     92 H92        23.0469    3.3062   -3.2493 H         1 UNK         0.0819 
     93 H93        22.6309    2.8623   -4.8977 H         1 UNK         0.0819 
     94 H94        22.7757    0.4529   -5.3364 H         1 UNK         0.3041 
     95 H95        22.5612   -2.0985   -5.3847 H         1 UNK         0.0784 
     96 H96        22.9822   -0.5767   -7.3502 H         1 UNK         0.0793 
     97 H97        24.5518   -1.3230   -7.6037 H         1 UNK         0.0793 
     98 H98        23.0824   -2.2555   -7.8360 H         1 UNK         0.0793 
     99 H99        25.2373   -3.0442   -5.1252 H         1 UNK         0.3024 
    100 H100       24.2057   -6.3634   -5.0238 H         1 UNK         0.1171 
    101 H101       24.7739   -6.3933   -7.4648 H         1 UNK         0.0786 
    102 H102       26.1044   -7.0025   -6.4960 H         1 UNK         0.0786 
    103 H103       26.1712   -5.3698   -7.1631 H         1 UNK         0.0786 
    104 H104       26.8228   -5.3149   -4.7569 H         1 UNK         0.2977 
    105 H105       27.6893    4.2201   -4.9182 H         1 UNK         0.3127 
    106 H106       29.3637    4.0556   -7.2386 H         1 UNK         0.0770 
    107 H107       27.2095    6.0962   -6.4523 H         1 UNK         0.0814 
    108 H108       28.4027    6.3143   -7.7250 H         1 UNK         0.0814 
    109 H109       28.9259    6.1973   -6.0536 H         1 UNK         0.0814 
    110 H110       25.9712    3.2872   -6.6844 H         1 UNK         0.2983 
    111 H111       25.2085    3.1694   -9.4850 H         1 UNK         0.0947 
    112 H112       23.1948    2.0161   -8.5963 H         1 UNK         0.0806 
    113 H113       23.5316    3.4662   -7.6627 H         1 UNK         0.0806 
    114 H114       23.9422    1.8816   -7.0123 H         1 UNK         0.0806 
    115 H115       26.9372    1.0028   -7.3222 H         1 UNK         0.3000 
    116 H116       26.6208   -1.3490   -9.0989 H         1 UNK         0.0850 
    117 H117       27.9921   -2.5105   -7.4047 H         1 UNK         0.0810 
    118 H118       28.2458   -1.0223   -6.5114 H         1 UNK         0.0810 
    119 H119       26.6412   -1.7227   -6.6153 H         1 UNK         0.0810 
    120 H120       29.0994    0.9099   -7.8816 H         1 UNK         0.3040 
    121 H121       31.0182    1.6951   -8.6150 H         1 UNK         0.0766 
    122 H122       29.6770    2.3745  -10.6219 H         1 UNK         0.0812 
    123 H123       30.1563    0.8889  -11.4411 H         1 UNK         0.0812 
    124 H124       31.3629    2.0940  -11.0191 H         1 UNK         0.0812 
    125 H125       30.8463   -1.1979   -7.8923 H         1 UNK         0.3205 
    126 H126       32.6668   -2.7461   -9.3855 H         1 UNK         0.0754 
    127 H127       32.6432   -4.2407   -7.3874 H         1 UNK         0.0769 
    128 H128       31.0224   -3.7044   -7.7917 H         1 UNK         0.0769 
    129 H129       31.8785   -2.9830   -6.4304 H         1 UNK         0.0769 
    130 H130       33.3720   -0.1439   -7.2792 H         1 UNK         0.2981 
    131 H131       36.0918   -0.8402   -6.5960 H         1 UNK         0.0541 
    132 H132       36.2194    0.7304  -10.3340 H         1 UNK         0.3459 
    133 H133       34.6967    0.2205   -9.6446 H         1 UNK         0.3459 
    134 H134       34.7423    1.9113   -6.5659 H         1 UNK         0.0612 
    135 H135       36.2754    1.5131   -5.8364 H         1 UNK         0.0612 
    136 H136       32.4769    0.9296   -5.8614 H         1 UNK         0.0624 
    137 H137       32.7660    2.2761   -4.7872 H         1 UNK         0.0624 
@<TRIPOS>BOND
     1    1    2 1    
     2    1   72 1    
     3    1   73 1    
     4    1   74 1    
     5    2    3 2    
     6    2    4 am   BACKBONE|DICT|INTERRES
     7    4    5 1    
     8    4   75 1    
     9    5    6 1    
    10    5   35 1    
    11    5   76 1    
    12    6    7 1    
    13    6   77 1    
    14    6   78 1    
    15    7    8 1    
    16    8    9 1    
    17    8   79 1    
    18    8   80 1    
    19    9   10 ar   
    20    9   14 ar   
    21   10   11 ar   
    22   10   81 1    
    23   11   12 ar   
    24   11   71 1    
    25   12   13 ar   
    26   12   82 1    
    27   13   14 ar   
    28   13   15 1    
    29   14   83 1    
    30   15   16 1    
    31   15   84 1    
    32   15   85 1    
    33   16   17 1    
    34   17   18 1    
    35   17   86 1    
    36   17   87 1    
    37   18   19 1    
    38   18   37 1    
    39   18   88 1    
    40   19   20 am   BACKBONE|DICT|INTERRES
    41   19   89 1    
    42   20   21 2    
    43   20   22 1    
    44   22   23 1    
    45   22   24 1    
    46   22   90 1    
    47   23   91 1    
    48   23   92 1    
    49   23   93 1    
    50   24   25 am   BACKBONE|DICT|INTERRES
    51   24   94 1    
    52   25   26 2    
    53   25   27 1    
    54   27   28 1    
    55   27   29 1    
    56   27   95 1    
    57   28   96 1    
    58   28   97 1    
    59   28   98 1    
    60   29   30 am   BACKBONE|DICT|INTERRES
    61   29   99 1    
    62   30   31 2    
    63   30   32 1    
    64   32   33 1    
    65   32   34 1    
    66   32  100 1    
    67   33  101 1    
    68   33  102 1    
    69   33  103 1    
    70   34   35 am   BACKBONE|DICT|INTERRES
    71   34  104 1    
    72   35   36 2    
    73   37   38 2    
    74   37   39 am   BACKBONE|DICT|INTERRES
    75   39   40 1    
    76   39  105 1    
    77   40   41 1    
    78   40   42 1    
    79   40  106 1    
    80   41  107 1    
    81   41  108 1    
    82   41  109 1    
    83   42   43 2    
    84   42   44 am   BACKBONE|DICT|INTERRES
    85   44   45 1    
    86   44  110 1    
    87   45   46 1    
    88   45   47 1    
    89   45  111 1    
    90   46  112 1    
    91   46  113 1    
    92   46  114 1    
    93   47   48 2    
    94   47   49 am   BACKBONE|DICT|INTERRES
    95   49   50 1    
    96   49  115 1    
    97   50   51 1    
    98   50   52 1    
    99   50  116 1    
   100   51  117 1    
   101   51  118 1    
   102   51  119 1    
   103   52   53 2    
   104   52   54 am   BACKBONE|DICT|INTERRES
   105   54   55 1    
   106   54  120 1    
   107   55   56 1    
   108   55   57 1    
   109   55  121 1    
   110   56  122 1    
   111   56  123 1    
   112   56  124 1    
   113   57   58 2    
   114   57   59 am   BACKBONE|DICT|INTERRES
   115   59   60 1    
   116   59  125 1    
   117   60   61 1    
   118   60   62 1    
   119   60  126 1    
   120   61  127 1    
   121   61  128 1    
   122   61  129 1    
   123   62   63 2    
   124   62   64 am   BACKBONE|DICT|INTERRES
   125   64   65 1    
   126   64  130 1    
   127   65   66 1    
   128   65   69 1    
   129   65  131 1    
   130   66   67 am   BACKBONE|DICT|INTERRES
   131   66   68 2    
   132   67  132 1    
   133   67  133 1    
   134   69   70 1    
   135   69  134 1    
   136   69  135 1    
   137   70   71 1    
   138   71  136 1    
   139   71  137 1    
@<TRIPOS>SUBSTRUCTURE
     1 UNK         1 GROUP             0       ****    0 ROOT    
