@<TRIPOS>MOLECULE
3R137
137   139    1
SMALL
USER_CHARGES


@<TRIPOS>ATOM
      1 CA         27.1066   -2.4108    2.8397 C.3       0 UNK        -0.2020 
      2 C          27.5531   -2.1358    1.4118 C.2       0 UNK         0.4855 
      3 O          28.2555   -1.1550    1.1679 O.2       0 UNK        -0.5197 
      4 N          27.1415   -2.9870    0.4627 N.am      1 UNK        -0.4892 
      5 CA         27.4991   -2.8983   -0.9612 C.3       1 UNK         0.0835 
      6 C6         27.5538   -4.2949   -1.6318 C.3       12 UNK        -0.0855 
      7 S7         29.0519   -5.1924   -1.1056 S.3       12 UNK        -0.2931 
      8 C8         29.8933   -5.5089   -2.6993 C.3       12 UNK         0.0378 
      9 C9         30.2441   -4.2721   -3.5323 C.ar      12 UNK        -0.0802 
     10 C10        30.3149   -4.4030   -4.9226 C.ar      12 UNK        -0.0944 
     11 C11        30.6779   -3.3192   -5.7251 C.ar      12 UNK        -0.0787 
     12 C12        30.9440   -2.0819   -5.1344 C.ar      12 UNK        -0.0862 
     13 C13        30.8795   -1.9260   -3.7454 C.ar      12 UNK        -0.0733 
     14 C14        30.5488   -3.0325   -2.9527 C.ar      12 UNK        -0.0832 
     15 C15        31.2341   -0.5980   -3.0747 C.3       12 UNK         0.0240 
     16 S16        30.7099    0.8952   -3.9922 S.3       12 UNK        -0.2522 
     17 C17        28.8912    0.7925   -3.8798 C.3       12 UNK        -0.0967 
     18 CA         28.2303    0.6388   -5.2795 C.3       5 UNK         0.0660 
     19 N          27.3574   -0.5355   -5.3557 N.am      5 UNK        -0.4015 
     20 C          26.8864   -1.0680   -6.4915 C.2       4 UNK         0.4946 
     21 O          27.0382   -0.5565   -7.5997 O.2       4 UNK        -0.5353 
     22 CA         26.0950   -2.3760   -6.3711 C.3       4 UNK         0.0277 
     23 CB         27.0333   -3.5549   -6.0684 C.3       4 UNK        -0.1981 
     24 N          25.0841   -2.2730   -5.3215 N.am      4 UNK        -0.4209 
     25 C          23.8061   -1.9302   -5.5304 C.2       3 UNK         0.4942 
     26 O          23.3194   -1.7394   -6.6455 O.2       3 UNK        -0.5208 
     27 CA         22.9101   -1.7640   -4.2876 C.3       3 UNK         0.0250 
     28 CB         22.1411   -3.0645   -4.0035 C.3       3 UNK        -0.1990 
     29 N          23.6286   -1.3543   -3.0763 N.am      3 UNK        -0.4232 
     30 C          24.3013   -0.2033   -2.9409 C.2       2 UNK         0.4993 
     31 O          24.4127    0.6371   -3.8317 O.2       2 UNK        -0.5286 
     32 CA         25.0322    0.0205   -1.6085 C.3       2 UNK         0.0209 
     33 CB         24.0618    0.5510   -0.5412 C.3       2 UNK        -0.1931 
     34 N          25.7487   -1.1497   -1.0834 N.am      2 UNK        -0.4546 
     35 C          26.6313   -1.9033   -1.7573 C.2       1 UNK         0.5154 
     36 O          26.7995   -1.8189   -2.9739 O.2       1 UNK        -0.5181 
     37 C          27.5560    1.9440   -5.7570 C.2       5 UNK         0.5014 
     38 O          28.2539    2.8262   -6.2557 O.2       5 UNK        -0.5248 
     39 N          26.2239    2.0562   -5.6310 N.am      6 UNK        -0.4434 
     40 CA         25.4548    3.1707   -6.1958 C.3       6 UNK         0.0363 
     41 CB         24.0613    3.2259   -5.5504 C.3       6 UNK        -0.1936 
     42 C          25.3266    3.0982   -7.7287 C.2       6 UNK         0.5081 
     43 O          25.1625    4.1411   -8.3627 O.2       6 UNK        -0.5248 
     44 N          25.3891    1.8861   -8.2979 N.am      7 UNK        -0.4718 
     45 CA         25.3285    1.6507   -9.7408 C.3       7 UNK         0.0273 
     46 CB         24.6990    0.2746  -10.0163 C.3       7 UNK        -0.1935 
     47 C          26.7183    1.7593  -10.3848 C.2       7 UNK         0.5018 
     48 O          26.8440    2.3790  -11.4420 O.2       7 UNK        -0.5186 
     49 N          27.7315    1.1687   -9.7399 N.am      8 UNK        -0.4240 
     50 CA         29.1203    1.1695  -10.1836 C.3       8 UNK         0.0235 
     51 CB         29.3957   -0.0983  -11.0126 C.3       8 UNK        -0.2000 
     52 C          30.0220    1.2642   -8.9494 C.2       8 UNK         0.4941 
     53 O          30.2850    0.2467   -8.3036 O.2       8 UNK        -0.5273 
     54 N          30.4694    2.4867   -8.6324 N.am      9 UNK        -0.4262 
     55 CA         31.3675    2.7854   -7.5142 C.3       9 UNK         0.0264 
     56 CB         31.5524    4.3070   -7.3929 C.3       9 UNK        -0.1955 
     57 C          32.7158    2.0686   -7.6842 C.2       9 UNK         0.5031 
     58 O          33.4295    2.3489   -8.6493 O.2       9 UNK        -0.5390 
     59 N          33.0009    1.1316   -6.7689 N.am      10 UNK        -0.4204 
     60 CA         34.1179    0.1768   -6.8010 C.3       10 UNK         0.0237 
     61 CB         35.4759    0.9000   -6.6696 C.3       10 UNK        -0.1985 
     62 C          34.0679   -0.8005   -7.9988 C.2       10 UNK         0.4970 
     63 O          35.1105   -1.3205   -8.4012 O.2       10 UNK        -0.4914 
     64 N          32.8579   -1.0607   -8.5136 N.am      11 UNK        -0.4285 
     65 CA         32.5403   -1.9913   -9.6076 C.3       11 UNK         0.1007 
     66 C          33.0715   -1.5228  -10.9963 C.2       11 UNK         0.5703 
     67 N          33.0639   -2.3871  -12.0034 N.am      11 UNK        -0.7361 
     68 O          33.4422   -0.3676  -11.1947 O.2       11 UNK        -0.4986 
     69 C69        32.8752   -3.4830   -9.2847 C.3       12 UNK        -0.0947 
     70 S70        32.5384   -4.0558   -7.5809 S.3       12 UNK        -0.2240 
     71 C71        30.8427   -3.4946   -7.2250 C.3       12 UNK         0.0194 
     72 H72        26.5344   -1.5667    3.2238 H         1 UNK         0.0906 
     73 H73        26.4839   -3.3026    2.9088 H         1 UNK         0.0906 
     74 H74        27.9750   -2.5540    3.4822 H         1 UNK         0.0906 
     75 H75        26.5684   -3.7786    0.7208 H         1 UNK         0.3140 
     76 H76        28.4976   -2.4640   -1.0230 H         1 UNK         0.1085 
     77 H77        27.5614   -4.2247   -2.7209 H         1 UNK         0.0836 
     78 H78        26.6709   -4.8849   -1.3803 H         1 UNK         0.0836 
     79 H79        29.2600   -6.1796   -3.2823 H         1 UNK         0.0731 
     80 H80        30.8144   -6.0572   -2.4979 H         1 UNK         0.0731 
     81 H81        30.1172   -5.3610   -5.3839 H         1 UNK         0.1312 
     82 H82        31.2302   -1.2499   -5.7615 H         1 UNK         0.1406 
     83 H83        30.5484   -2.9319   -1.8771 H         1 UNK         0.1631 
     84 H84        32.3167   -0.5597   -2.9488 H         1 UNK         0.0717 
     85 H85        30.8074   -0.5520   -2.0713 H         1 UNK         0.0717 
     86 H86        28.6407   -0.0459   -3.2312 H         1 UNK         0.0934 
     87 H87        28.5294    1.6739   -3.3462 H         1 UNK         0.0934 
     88 H88        29.0169    0.4416   -6.0099 H         1 UNK         0.0739 
     89 H89        27.1728   -1.0191   -4.4776 H         1 UNK         0.3093 
     90 H90        25.6164   -2.5689   -7.3339 H         1 UNK         0.0818 
     91 H91        26.4847   -4.4951   -6.0152 H         1 UNK         0.0819 
     92 H92        27.7844   -3.6616   -6.8514 H         1 UNK         0.0819 
     93 H93        27.5628   -3.4229   -5.1242 H         1 UNK         0.0819 
     94 H94        25.4166   -2.3474   -4.3665 H         1 UNK         0.3041 
     95 H95        22.1845   -0.9806   -4.5173 H         1 UNK         0.0784 
     96 H96        21.5733   -3.3813   -4.8796 H         1 UNK         0.0793 
     97 H97        22.8134   -3.8815   -3.7382 H         1 UNK         0.0793 
     98 H98        21.4288   -2.9355   -3.1884 H         1 UNK         0.0793 
     99 H99        23.6139   -1.9934   -2.2946 H         1 UNK         0.3024 
    100 H100       25.7838    0.7916   -1.7922 H         1 UNK         0.1171 
    101 H101       24.5912    0.8479    0.3644 H         1 UNK         0.0786 
    102 H102       23.5258    1.4303   -0.9022 H         1 UNK         0.0786 
    103 H103       23.3159   -0.1953   -0.2650 H         1 UNK         0.0786 
    104 H104       25.6851   -1.3053   -0.0878 H         1 UNK         0.2977 
    105 H105       25.6944    1.3376   -5.1433 H         1 UNK         0.3127 
    106 H106       25.9720    4.1018   -5.9537 H         1 UNK         0.0770 
    107 H107       23.4842    2.3243   -5.7601 H         1 UNK         0.0814 
    108 H108       23.4891    4.0743   -5.9282 H         1 UNK         0.0814 
    109 H109       24.1290    3.3377   -4.4682 H         1 UNK         0.0814 
    110 H110       25.5929    1.0821   -7.7175 H         1 UNK         0.2983 
    111 H111       24.6877    2.4061  -10.2018 H         1 UNK         0.0947 
    112 H112       25.2932   -0.5396   -9.6007 H         1 UNK         0.0806 
    113 H113       24.6099    0.0965  -11.0888 H         1 UNK         0.0806 
    114 H114       23.6973    0.2053   -9.5917 H         1 UNK         0.0806 
    115 H115       27.5398    0.6465   -8.8843 H         1 UNK         0.3000 
    116 H116       29.3130    2.0394  -10.8155 H         1 UNK         0.0850 
    117 H117       28.7691   -0.1314  -11.9039 H         1 UNK         0.0810 
    118 H118       29.2058   -1.0060  -10.4381 H         1 UNK         0.0810 
    119 H119       30.4330   -0.1249  -11.3457 H         1 UNK         0.0810 
    120 H120       30.2036    3.2681   -9.2133 H         1 UNK         0.3040 
    121 H121       30.8873    2.4314   -6.6004 H         1 UNK         0.0766 
    122 H122       32.2130    4.5528   -6.5605 H         1 UNK         0.0812 
    123 H123       30.6008    4.8062   -7.2085 H         1 UNK         0.0812 
    124 H124       31.9904    4.7358   -8.2952 H         1 UNK         0.0812 
    125 H125       32.3375    0.9968   -6.0166 H         1 UNK         0.3205 
    126 H126       33.9970   -0.4467   -5.9137 H         1 UNK         0.0754 
    127 H127       35.7122    1.4840   -7.5595 H         1 UNK         0.0769 
    128 H128       36.2876    0.1856   -6.5270 H         1 UNK         0.0769 
    129 H129       35.4858    1.5736   -5.8128 H         1 UNK         0.0769 
    130 H130       32.0581   -0.5334   -8.1768 H         1 UNK         0.2981 
    131 H131       31.4586   -1.9224   -9.7130 H         1 UNK         0.0541 
    132 H132       33.3880   -2.0834  -12.9083 H         1 UNK         0.3459 
    133 H133       32.7470   -3.3353  -11.8782 H         1 UNK         0.3459 
    134 H134       32.3302   -4.1429   -9.9610 H         1 UNK         0.0612 
    135 H135       33.9342   -3.6711   -9.4699 H         1 UNK         0.0612 
    136 H136       30.6167   -2.5531   -7.7231 H         1 UNK         0.0624 
    137 H137       30.1318   -4.2271   -7.6094 H         1 UNK         0.0624 
@<TRIPOS>BOND
     1    1    2 1    
     2    1   72 1    
     3    1   73 1    
     4    1   74 1    
     5    2    3 2    
     6    2    4 am   BACKBONE|DICT|INTERRES
     7    4    5 1    
     8    4   75 1    
     9    5    6 1    
    10    5   35 1    
    11    5   76 1    
    12    6    7 1    
    13    6   77 1    
    14    6   78 1    
    15    7    8 1    
    16    8    9 1    
    17    8   79 1    
    18    8   80 1    
    19    9   10 ar   
    20    9   14 ar   
    21   10   11 ar   
    22   10   81 1    
    23   11   12 ar   
    24   11   71 1    
    25   12   13 ar   
    26   12   82 1    
    27   13   14 ar   
    28   13   15 1    
    29   14   83 1    
    30   15   16 1    
    31   15   84 1    
    32   15   85 1    
    33   16   17 1    
    34   17   18 1    
    35   17   86 1    
    36   17   87 1    
    37   18   19 1    
    38   18   37 1    
    39   18   88 1    
    40   19   20 am   BACKBONE|DICT|INTERRES
    41   19   89 1    
    42   20   21 2    
    43   20   22 1    
    44   22   23 1    
    45   22   24 1    
    46   22   90 1    
    47   23   91 1    
    48   23   92 1    
    49   23   93 1    
    50   24   25 am   BACKBONE|DICT|INTERRES
    51   24   94 1    
    52   25   26 2    
    53   25   27 1    
    54   27   28 1    
    55   27   29 1    
    56   27   95 1    
    57   28   96 1    
    58   28   97 1    
    59   28   98 1    
    60   29   30 am   BACKBONE|DICT|INTERRES
    61   29   99 1    
    62   30   31 2    
    63   30   32 1    
    64   32   33 1    
    65   32   34 1    
    66   32  100 1    
    67   33  101 1    
    68   33  102 1    
    69   33  103 1    
    70   34   35 am   BACKBONE|DICT|INTERRES
    71   34  104 1    
    72   35   36 2    
    73   37   38 2    
    74   37   39 am   BACKBONE|DICT|INTERRES
    75   39   40 1    
    76   39  105 1    
    77   40   41 1    
    78   40   42 1    
    79   40  106 1    
    80   41  107 1    
    81   41  108 1    
    82   41  109 1    
    83   42   43 2    
    84   42   44 am   BACKBONE|DICT|INTERRES
    85   44   45 1    
    86   44  110 1    
    87   45   46 1    
    88   45   47 1    
    89   45  111 1    
    90   46  112 1    
    91   46  113 1    
    92   46  114 1    
    93   47   48 2    
    94   47   49 am   BACKBONE|DICT|INTERRES
    95   49   50 1    
    96   49  115 1    
    97   50   51 1    
    98   50   52 1    
    99   50  116 1    
   100   51  117 1    
   101   51  118 1    
   102   51  119 1    
   103   52   53 2    
   104   52   54 am   BACKBONE|DICT|INTERRES
   105   54   55 1    
   106   54  120 1    
   107   55   56 1    
   108   55   57 1    
   109   55  121 1    
   110   56  122 1    
   111   56  123 1    
   112   56  124 1    
   113   57   58 2    
   114   57   59 am   BACKBONE|DICT|INTERRES
   115   59   60 1    
   116   59  125 1    
   117   60   61 1    
   118   60   62 1    
   119   60  126 1    
   120   61  127 1    
   121   61  128 1    
   122   61  129 1    
   123   62   63 2    
   124   62   64 am   BACKBONE|DICT|INTERRES
   125   64   65 1    
   126   64  130 1    
   127   65   66 1    
   128   65   69 1    
   129   65  131 1    
   130   66   67 am   BACKBONE|DICT|INTERRES
   131   66   68 2    
   132   67  132 1    
   133   67  133 1    
   134   69   70 1    
   135   69  134 1    
   136   69  135 1    
   137   70   71 1    
   138   71  136 1    
   139   71  137 1    
@<TRIPOS>SUBSTRUCTURE
     1 UNK         1 GROUP             0       ****    0 ROOT    
