@<TRIPOS>MOLECULE
3R137
137   139    1
SMALL
USER_CHARGES


@<TRIPOS>ATOM
      1 CA         26.3057   -2.4239    4.7905 C.3       0 UNK        -0.2020 
      2 C          26.6202   -1.9918    3.3658 C.2       0 UNK         0.4855 
      3 O          26.2274   -0.8982    2.9574 O.2       0 UNK        -0.5197 
      4 N          27.3323   -2.8370    2.6097 N.am      1 UNK        -0.4892 
      5 CA         27.6623   -2.6164    1.1974 C.3       1 UNK         0.0835 
      6 C6         28.8975   -3.4553    0.7794 C.3       12 UNK        -0.0855 
      7 S7         29.7767   -2.7240   -0.6427 S.3       12 UNK        -0.2931 
      8 C8         29.7118   -4.0941   -1.8490 C.3       12 UNK         0.0378 
      9 C9         30.1627   -3.7102   -3.2589 C.ar      12 UNK        -0.0802 
     10 C10        31.1491   -2.7396   -3.4834 C.ar      12 UNK        -0.0944 
     11 C11        31.5463   -2.3962   -4.7786 C.ar      12 UNK        -0.0787 
     12 C12        30.9454   -3.0558   -5.8587 C.ar      12 UNK        -0.0862 
     13 C13        29.9569   -4.0230   -5.6632 C.ar      12 UNK        -0.0733 
     14 C14        29.5883   -4.3612   -4.3565 C.ar      12 UNK        -0.0832 
     15 C15        29.3369   -4.6900   -6.8929 C.3       12 UNK         0.0240 
     16 S16        27.5656   -5.1335   -6.7738 S.3       12 UNK        -0.2522 
     17 C17        26.7590   -3.6490   -6.0871 C.3       12 UNK        -0.0967 
     18 CA         26.4889   -2.5061   -7.0992 C.3       5 UNK         0.0660 
     19 N          25.3145   -1.7237   -6.7050 N.am      5 UNK        -0.4015 
     20 C          24.7385   -0.7532   -7.4282 C.2       4 UNK         0.4946 
     21 O          25.0902   -0.4338   -8.5634 O.2       4 UNK        -0.5353 
     22 CA         23.5964    0.0188   -6.7454 C.3       4 UNK         0.0277 
     23 CB         22.2611   -0.7226   -6.9183 C.3       4 UNK        -0.1981 
     24 N          23.8468    0.2625   -5.3204 N.am      4 UNK        -0.4209 
     25 C          24.8229    1.0562   -4.8559 C.2       3 UNK         0.4942 
     26 O          25.5954    1.6835   -5.5778 O.2       3 UNK        -0.5208 
     27 CA         24.9960    1.1366   -3.3306 C.3       3 UNK         0.0250 
     28 CB         24.0131    2.1532   -2.7280 C.3       3 UNK        -0.1990 
     29 N          24.8648   -0.1500   -2.6366 N.am      3 UNK        -0.4232 
     30 C          25.6144   -1.2341   -2.8792 C.2       2 UNK         0.4993 
     31 O          26.4607   -1.2994   -3.7728 O.2       2 UNK        -0.5286 
     32 CA         25.4261   -2.4226   -1.9333 C.3       2 UNK         0.0209 
     33 CB         25.4950   -3.7760   -2.6664 C.3       2 UNK        -0.1931 
     34 N          26.4796   -2.3378   -0.9293 N.am      2 UNK        -0.4546 
     35 C          26.4382   -2.8814    0.2908 C.2       1 UNK         0.5154 
     36 O          25.4991   -3.5729    0.6968 O.2       1 UNK        -0.5181 
     37 C          27.7134   -1.5858   -7.2472 C.2       5 UNK         0.5014 
     38 O          28.3517   -1.5799   -8.3005 O.2       5 UNK        -0.5248 
     39 N          27.9802   -0.7965   -6.1964 N.am      6 UNK        -0.4434 
     40 CA         29.0686    0.1758   -6.1293 C.3       6 UNK         0.0363 
     41 CB         29.1189    0.7801   -4.7187 C.3       6 UNK        -0.1936 
     42 C          28.9741    1.2651   -7.2093 C.2       6 UNK         0.5081 
     43 O          29.9891    1.5904   -7.8238 O.2       6 UNK        -0.5248 
     44 N          27.7606    1.7767   -7.4593 N.am      7 UNK        -0.4718 
     45 CA         27.4718    2.7360   -8.5270 C.3       7 UNK         0.0273 
     46 CB         26.0349    3.2619   -8.3842 C.3       7 UNK        -0.1935 
     47 C          27.7005    2.1554   -9.9317 C.2       7 UNK         0.5018 
     48 O          28.3182    2.8249  -10.7601 O.2       7 UNK        -0.5186 
     49 N          27.2219    0.9251  -10.1718 N.am      8 UNK        -0.4240 
     50 CA         27.3835    0.2114  -11.4423 C.3       8 UNK         0.0235 
     51 CB         26.4967   -1.0441  -11.4517 C.3       8 UNK        -0.2000 
     52 C          28.8456   -0.1557  -11.7435 C.2       8 UNK         0.4941 
     53 O          29.2901    0.0139  -12.8796 O.2       8 UNK        -0.5273 
     54 N          29.5664   -0.6407  -10.7245 N.am      9 UNK        -0.4262 
     55 CA         30.9794   -1.0172  -10.8122 C.3       9 UNK         0.0264 
     56 CB         31.2913   -1.9992   -9.6762 C.3       9 UNK        -0.1955 
     57 C          31.9504    0.1795  -10.7799 C.2       9 UNK         0.5031 
     58 O          33.1175   -0.0017  -11.1305 O.2       9 UNK        -0.5390 
     59 N          31.4632    1.3601  -10.3692 N.am      10 UNK        -0.4204 
     60 CA         32.1889    2.6225  -10.1874 C.3       10 UNK         0.0237 
     61 CB         32.7569    3.1449  -11.5249 C.3       10 UNK        -0.1985 
     62 C          33.2418    2.5231   -9.0672 C.2       10 UNK         0.4970 
     63 O          34.4265    2.7760   -9.2971 O.2       10 UNK        -0.4914 
     64 N          32.7745    2.1557   -7.8718 N.am      11 UNK        -0.4285 
     65 CA         33.5602    2.0050   -6.6400 C.3       11 UNK         0.1007 
     66 C          32.7893    2.5405   -5.4011 C.2       11 UNK         0.5703 
     67 N          33.3016    2.3283   -4.1957 N.am      11 UNK        -0.7361 
     68 O          31.7511    3.1890   -5.5151 O.2       11 UNK        -0.4986 
     69 C69        34.1395    0.5675   -6.4783 C.3       12 UNK        -0.0947 
     70 S70        32.9055   -0.7615   -6.6685 S.3       12 UNK        -0.2240 
     71 C71        32.6192   -1.3128   -4.9509 C.3       12 UNK         0.0194 
     72 H72        26.7290   -3.4007    5.0242 H         1 UNK         0.0906 
     73 H73        26.7093   -1.7016    5.4997 H         1 UNK         0.0906 
     74 H74        25.2272   -2.4784    4.9359 H         1 UNK         0.0906 
     75 H75        27.5924   -3.7379    2.9858 H         1 UNK         0.3140 
     76 H76        27.9186   -1.5588    1.0945 H         1 UNK         0.1085 
     77 H77        29.6185   -3.4902    1.5981 H         1 UNK         0.0836 
     78 H78        28.6265   -4.4947    0.5822 H         1 UNK         0.0836 
     79 H79        30.3358   -4.9138   -1.4906 H         1 UNK         0.0731 
     80 H80        28.6878   -4.4699   -1.8836 H         1 UNK         0.0731 
     81 H81        31.6150   -2.2403   -2.6453 H         1 UNK         0.1312 
     82 H82        31.2379   -2.8241   -6.8699 H         1 UNK         0.1406 
     83 H83        28.8390   -5.1241   -4.1947 H         1 UNK         0.1631 
     84 H84        29.9017   -5.5970   -7.1108 H         1 UNK         0.0717 
     85 H85        29.4549   -4.0467   -7.7660 H         1 UNK         0.0717 
     86 H86        25.8076   -4.0114   -5.6961 H         1 UNK         0.0934 
     87 H87        27.3014   -3.2940   -5.2120 H         1 UNK         0.0934 
     88 H88        26.2709   -2.9404   -8.0772 H         1 UNK         0.0739 
     89 H89        24.9887   -1.8612   -5.7604 H         1 UNK         0.3093 
     90 H90        23.5136    0.9883   -7.2416 H         1 UNK         0.0818 
     91 H91        21.4305   -0.1426   -6.5155 H         1 UNK         0.0819 
     92 H92        22.0483   -0.8985   -7.9739 H         1 UNK         0.0819 
     93 H93        22.2662   -1.6933   -6.4211 H         1 UNK         0.0819 
     94 H94        23.2491   -0.2078   -4.6562 H         1 UNK         0.3041 
     95 H95        26.0094    1.4978   -3.1433 H         1 UNK         0.0784 
     96 H96        24.1052    3.1231   -3.2194 H         1 UNK         0.0793 
     97 H97        22.9770    1.8301   -2.8364 H         1 UNK         0.0793 
     98 H98        24.2067    2.3120   -1.6669 H         1 UNK         0.0793 
     99 H99        24.2082   -0.1774   -1.8694 H         1 UNK         0.3024 
    100 H100       24.4501   -2.3385   -1.4494 H         1 UNK         0.1171 
    101 H101       25.2770   -4.6029   -1.9905 H         1 UNK         0.0786 
    102 H102       26.4812   -3.9531   -3.0949 H         1 UNK         0.0786 
    103 H103       24.7649   -3.8207   -3.4748 H         1 UNK         0.0786 
    104 H104       27.2969   -1.8071   -1.2048 H         1 UNK         0.2977 
    105 H105       27.4047   -0.8898   -5.3615 H         1 UNK         0.3127 
    106 H106       29.9976   -0.3675   -6.3008 H         1 UNK         0.0770 
    107 H107       28.2024    1.3196   -4.4788 H         1 UNK         0.0814 
    108 H108       29.9469    1.4810   -4.6222 H         1 UNK         0.0814 
    109 H109       29.2606    0.0059   -3.9639 H         1 UNK         0.0814 
    110 H110       26.9812    1.5085   -6.8625 H         1 UNK         0.2983 
    111 H111       28.1552    3.5794   -8.4052 H         1 UNK         0.0947 
    112 H112       25.8015    3.9825   -9.1691 H         1 UNK         0.0806 
    113 H113       25.8918    3.7663   -7.4285 H         1 UNK         0.0806 
    114 H114       25.3022    2.4568   -8.4494 H         1 UNK         0.0806 
    115 H115       26.6955    0.4487   -9.4446 H         1 UNK         0.3000 
    116 H116       27.0400    0.8733  -12.2402 H         1 UNK         0.0850 
    117 H117       26.6009   -1.5911  -12.3897 H         1 UNK         0.0810 
    118 H118       25.4435   -0.7847  -11.3428 H         1 UNK         0.0810 
    119 H119       26.7562   -1.7278  -10.6422 H         1 UNK         0.0810 
    120 H120       29.1046   -0.8073   -9.8308 H         1 UNK         0.3040 
    121 H121       31.1424   -1.5359  -11.7594 H         1 UNK         0.0766 
    122 H122       32.3465   -2.2757   -9.6621 H         1 UNK         0.0812 
    123 H123       31.0509   -1.5534   -8.7126 H         1 UNK         0.0812 
    124 H124       30.7117   -2.9171   -9.7738 H         1 UNK         0.0812 
    125 H125       30.5079    1.3687  -10.0332 H         1 UNK         0.3205 
    126 H126       31.4471    3.3466   -9.8464 H         1 UNK         0.0754 
    127 H127       33.1930    4.1367  -11.3998 H         1 UNK         0.0769 
    128 H128       31.9753    3.2270  -12.2804 H         1 UNK         0.0769 
    129 H129       33.5388    2.4960  -11.9201 H         1 UNK         0.0769 
    130 H130       31.7744    1.9862   -7.7654 H         1 UNK         0.2981 
    131 H131       34.4112    2.6840   -6.7159 H         1 UNK         0.0541 
    132 H132       34.1689    1.8306   -4.0749 H         1 UNK         0.3459 
    133 H133       32.8170    2.6926   -3.3909 H         1 UNK         0.3459 
    134 H134       34.6734    0.4467   -5.5351 H         1 UNK         0.0612 
    135 H135       34.8915    0.4074   -7.2521 H         1 UNK         0.0612 
    136 H136       33.5604   -1.6821   -4.5417 H         1 UNK         0.0624 
    137 H137       32.3348   -0.4432   -4.3570 H         1 UNK         0.0624 
@<TRIPOS>BOND
     1    1    2 1    
     2    1   72 1    
     3    1   73 1    
     4    1   74 1    
     5    2    3 2    
     6    2    4 am   BACKBONE|DICT|INTERRES
     7    4    5 1    
     8    4   75 1    
     9    5    6 1    
    10    5   35 1    
    11    5   76 1    
    12    6    7 1    
    13    6   77 1    
    14    6   78 1    
    15    7    8 1    
    16    8    9 1    
    17    8   79 1    
    18    8   80 1    
    19    9   10 ar   
    20    9   14 ar   
    21   10   11 ar   
    22   10   81 1    
    23   11   12 ar   
    24   11   71 1    
    25   12   13 ar   
    26   12   82 1    
    27   13   14 ar   
    28   13   15 1    
    29   14   83 1    
    30   15   16 1    
    31   15   84 1    
    32   15   85 1    
    33   16   17 1    
    34   17   18 1    
    35   17   86 1    
    36   17   87 1    
    37   18   19 1    
    38   18   37 1    
    39   18   88 1    
    40   19   20 am   BACKBONE|DICT|INTERRES
    41   19   89 1    
    42   20   21 2    
    43   20   22 1    
    44   22   23 1    
    45   22   24 1    
    46   22   90 1    
    47   23   91 1    
    48   23   92 1    
    49   23   93 1    
    50   24   25 am   BACKBONE|DICT|INTERRES
    51   24   94 1    
    52   25   26 2    
    53   25   27 1    
    54   27   28 1    
    55   27   29 1    
    56   27   95 1    
    57   28   96 1    
    58   28   97 1    
    59   28   98 1    
    60   29   30 am   BACKBONE|DICT|INTERRES
    61   29   99 1    
    62   30   31 2    
    63   30   32 1    
    64   32   33 1    
    65   32   34 1    
    66   32  100 1    
    67   33  101 1    
    68   33  102 1    
    69   33  103 1    
    70   34   35 am   BACKBONE|DICT|INTERRES
    71   34  104 1    
    72   35   36 2    
    73   37   38 2    
    74   37   39 am   BACKBONE|DICT|INTERRES
    75   39   40 1    
    76   39  105 1    
    77   40   41 1    
    78   40   42 1    
    79   40  106 1    
    80   41  107 1    
    81   41  108 1    
    82   41  109 1    
    83   42   43 2    
    84   42   44 am   BACKBONE|DICT|INTERRES
    85   44   45 1    
    86   44  110 1    
    87   45   46 1    
    88   45   47 1    
    89   45  111 1    
    90   46  112 1    
    91   46  113 1    
    92   46  114 1    
    93   47   48 2    
    94   47   49 am   BACKBONE|DICT|INTERRES
    95   49   50 1    
    96   49  115 1    
    97   50   51 1    
    98   50   52 1    
    99   50  116 1    
   100   51  117 1    
   101   51  118 1    
   102   51  119 1    
   103   52   53 2    
   104   52   54 am   BACKBONE|DICT|INTERRES
   105   54   55 1    
   106   54  120 1    
   107   55   56 1    
   108   55   57 1    
   109   55  121 1    
   110   56  122 1    
   111   56  123 1    
   112   56  124 1    
   113   57   58 2    
   114   57   59 am   BACKBONE|DICT|INTERRES
   115   59   60 1    
   116   59  125 1    
   117   60   61 1    
   118   60   62 1    
   119   60  126 1    
   120   61  127 1    
   121   61  128 1    
   122   61  129 1    
   123   62   63 2    
   124   62   64 am   BACKBONE|DICT|INTERRES
   125   64   65 1    
   126   64  130 1    
   127   65   66 1    
   128   65   69 1    
   129   65  131 1    
   130   66   67 am   BACKBONE|DICT|INTERRES
   131   66   68 2    
   132   67  132 1    
   133   67  133 1    
   134   69   70 1    
   135   69  134 1    
   136   69  135 1    
   137   70   71 1    
   138   71  136 1    
   139   71  137 1    
@<TRIPOS>SUBSTRUCTURE
     1 UNK         1 GROUP             0       ****    0 ROOT    
