@<TRIPOS>MOLECULE
3R137
137   139    1
SMALL
USER_CHARGES


@<TRIPOS>ATOM
      1 CA         25.6528   -4.2196    2.9405 C.3       0 UNK        -0.2020 
      2 C          26.3391   -3.4396    1.8294 C.2       0 UNK         0.4855 
      3 O          26.6862   -2.2753    2.0235 O.2       0 UNK        -0.5197 
      4 N          26.5219   -4.0656    0.6599 N.am      1 UNK        -0.4892 
      5 CA         27.1945   -3.4944   -0.5162 C.3       1 UNK         0.0835 
      6 C6         27.9796   -4.5776   -1.3088 C.3       12 UNK        -0.0855 
      7 S7         29.5811   -4.9368   -0.5083 S.3       12 UNK        -0.2931 
      8 C8         30.7794   -4.7078   -1.8777 C.3       12 UNK         0.0378 
      9 C9         30.7770   -3.3308   -2.5498 C.ar      12 UNK        -0.0802 
     10 C10        31.1211   -3.2368   -3.9042 C.ar      12 UNK        -0.0944 
     11 C11        31.1126   -2.0019   -4.5606 C.ar      12 UNK        -0.0787 
     12 C12        30.7745   -0.8486   -3.8513 C.ar      12 UNK        -0.0862 
     13 C13        30.4171   -0.9226   -2.5041 C.ar      12 UNK        -0.0733 
     14 C14        30.4446   -2.1613   -1.8534 C.ar      12 UNK        -0.0832 
     15 C15        29.9833    0.3275   -1.7518 C.3       12 UNK         0.0240 
     16 S16        28.2011    0.2818   -1.3756 S.3       12 UNK        -0.2522 
     17 C17        27.4267    1.3239   -2.6592 C.3       12 UNK        -0.0967 
     18 CA         27.6848    0.9280   -4.1356 C.3       5 UNK         0.0660 
     19 N          27.3392   -0.4654   -4.4659 N.am      5 UNK        -0.4015 
     20 C          27.5506   -1.0425   -5.6635 C.2       4 UNK         0.4946 
     21 O          28.1188   -0.4767   -6.5955 O.2       4 UNK        -0.5353 
     22 CA         26.9917   -2.4521   -5.9059 C.3       4 UNK         0.0277 
     23 CB         27.9929   -3.5270   -5.4635 C.3       4 UNK        -0.1981 
     24 N          25.7228   -2.6442   -5.2090 N.am      4 UNK        -0.4209 
     25 C          24.5166   -2.3982   -5.7363 C.2       3 UNK         0.4942 
     26 O          24.3361   -2.0567   -6.9053 O.2       3 UNK        -0.5208 
     27 CA         23.2980   -2.5494   -4.8058 C.3       3 UNK         0.0250 
     28 CB         22.6806   -3.9493   -4.9536 C.3       3 UNK        -0.1990 
     29 N          23.5944   -2.2991   -3.3916 N.am      3 UNK        -0.4232 
     30 C          23.9680   -1.1131   -2.8926 C.2       2 UNK         0.4993 
     31 O          24.1058   -0.0941   -3.5721 O.2       2 UNK        -0.5286 
     32 CA         24.2930   -1.0692   -1.3885 C.3       2 UNK         0.0209 
     33 CB         23.0005   -0.9729   -0.5619 C.3       2 UNK        -0.1931 
     34 N          25.1277   -2.1631   -0.8621 N.am      2 UNK        -0.4546 
     35 C          26.2562   -2.6467   -1.4057 C.2       1 UNK         0.5154 
     36 O          26.5950   -2.4072   -2.5624 O.2       1 UNK        -0.5181 
     37 C          26.9889    1.9381   -5.0718 C.2       5 UNK         0.5014 
     38 O          27.5969    2.9437   -5.4395 O.2       5 UNK        -0.5248 
     39 N          25.7557    1.6234   -5.4935 N.am      6 UNK        -0.4434 
     40 CA         24.9988    2.3509   -6.5163 C.3       6 UNK         0.0363 
     41 CB         23.5876    1.7472   -6.6033 C.3       6 UNK        -0.1936 
     42 C          25.6582    2.3757   -7.9139 C.2       6 UNK         0.5081 
     43 O          25.2722    3.2092   -8.7340 O.2       6 UNK        -0.5248 
     44 N          26.6248    1.4831   -8.1696 N.am      7 UNK        -0.4718 
     45 CA         27.3659    1.3578   -9.4247 C.3       7 UNK         0.0273 
     46 CB         26.9709    0.0306  -10.0984 C.3       7 UNK        -0.1935 
     47 C          28.8858    1.4448   -9.1944 C.2       7 UNK         0.5018 
     48 O          29.6462    0.9474  -10.0281 O.2       7 UNK        -0.5186 
     49 N          29.3209    2.0756   -8.0898 N.am      8 UNK        -0.4240 
     50 CA         30.7197    2.1570   -7.6358 C.3       8 UNK         0.0235 
     51 CB         30.7803    2.8862   -6.2843 C.3       8 UNK        -0.2000 
     52 C          31.7182    2.7913   -8.6239 C.2       8 UNK         0.4941 
     53 O          32.9215    2.5837   -8.4679 O.2       8 UNK        -0.5273 
     54 N          31.2206    3.5235   -9.6310 N.am      9 UNK        -0.4262 
     55 CA         32.0026    4.0174  -10.7685 C.3       9 UNK         0.0264 
     56 CB         31.1324    4.9639  -11.6110 C.3       9 UNK        -0.1955 
     57 C          32.5770    2.8866  -11.6465 C.2       9 UNK         0.5031 
     58 O          33.6428    3.0715  -12.2363 O.2       9 UNK        -0.5390 
     59 N          31.8761    1.7456  -11.7048 N.am      10 UNK        -0.4204 
     60 CA         32.3300    0.5103  -12.3449 C.3       10 UNK         0.0237 
     61 CB         31.2105   -0.0414  -13.2441 C.3       10 UNK        -0.1985 
     62 C          32.7328   -0.5247  -11.2837 C.2       10 UNK         0.4970 
     63 O          33.7859   -1.1481  -11.4172 O.2       10 UNK        -0.4914 
     64 N          31.8919   -0.6760  -10.2508 N.am      11 UNK        -0.4285 
     65 CA         32.0499   -1.5902   -9.1094 C.3       11 UNK         0.1007 
     66 C          32.0086   -3.1068   -9.4745 C.2       11 UNK         0.5703 
     67 N          31.4329   -3.4906  -10.6082 N.am      11 UNK        -0.7361 
     68 O          32.4763   -3.9532   -8.7173 O.2       11 UNK        -0.4986 
     69 C69        33.2541   -1.1878   -8.1986 C.3       12 UNK        -0.0947 
     70 S70        33.1268   -1.4425   -6.3834 S.3       12 UNK        -0.2240 
     71 C71        31.3998   -1.9064   -6.0503 C.3       12 UNK         0.0194 
     72 H72        25.3896   -5.2302    2.6285 H         1 UNK         0.0906 
     73 H73        26.3099   -4.2934    3.8067 H         1 UNK         0.0906 
     74 H74        24.7396   -3.7109    3.2485 H         1 UNK         0.0906 
     75 H75        26.2018   -5.0188    0.5562 H         1 UNK         0.3140 
     76 H76        27.9235   -2.7616   -0.1635 H         1 UNK         0.1085 
     77 H77        28.1849   -4.2723   -2.3336 H         1 UNK         0.0836 
     78 H78        27.4011   -5.4989   -1.3921 H         1 UNK         0.0836 
     79 H79        30.5853   -5.4819   -2.6220 H         1 UNK         0.0731 
     80 H80        31.7819   -4.8984   -1.4930 H         1 UNK         0.0731 
     81 H81        31.3766   -4.1303   -4.4575 H         1 UNK         0.1312 
     82 H82        30.7717    0.1027   -4.3632 H         1 UNK         0.1406 
     83 H83        30.1826   -2.2108   -0.8061 H         1 UNK         0.1631 
     84 H84        30.2275    1.2343   -2.3070 H         1 UNK         0.0717 
     85 H85        30.5370    0.3859   -0.8137 H         1 UNK         0.0717 
     86 H86        26.3536    1.3320   -2.4602 H         1 UNK         0.0934 
     87 H87        27.7642    2.3478   -2.4847 H         1 UNK         0.0934 
     88 H88        28.7504    1.0341   -4.3229 H         1 UNK         0.0739 
     89 H89        26.9465   -1.0310   -3.7166 H         1 UNK         0.3093 
     90 H90        26.8340   -2.5687   -6.9805 H         1 UNK         0.0818 
     91 H91        28.3034   -3.3834   -4.4298 H         1 UNK         0.0819 
     92 H92        27.5733   -4.5287   -5.5554 H         1 UNK         0.0819 
     93 H93        28.8894   -3.4943   -6.0816 H         1 UNK         0.0819 
     94 H94        25.7925   -2.8398   -4.2142 H         1 UNK         0.3041 
     95 H95        22.5562   -1.8134   -5.1235 H         1 UNK         0.0784 
     96 H96        22.4234   -4.1543   -5.9939 H         1 UNK         0.0793 
     97 H97        23.3686   -4.7308   -4.6281 H         1 UNK         0.0793 
     98 H98        21.7638   -4.0430   -4.3712 H         1 UNK         0.0793 
     99 H99        23.5313   -3.0852   -2.7608 H         1 UNK         0.3024 
    100 H100       24.8593   -0.1506   -1.2239 H         1 UNK         0.1171 
    101 H101       22.4158   -1.8918   -0.6172 H         1 UNK         0.0786 
    102 H102       22.3662   -0.1599   -0.9188 H         1 UNK         0.0786 
    103 H103       23.2148   -0.7743    0.4885 H         1 UNK         0.0786 
    104 H104       24.9506   -2.4267    0.0965 H         1 UNK         0.2977 
    105 H105       25.2997    0.8162   -5.0802 H         1 UNK         0.3127 
    106 H106       24.9102    3.3872   -6.1844 H         1 UNK         0.0770 
    107 H107       23.6167    0.7034   -6.9192 H         1 UNK         0.0814 
    108 H108       22.9724    2.2893   -7.3228 H         1 UNK         0.0814 
    109 H109       23.0758    1.7915   -5.6416 H         1 UNK         0.0814 
    110 H110       26.9185    0.8416   -7.4374 H         1 UNK         0.2983 
    111 H111       27.1120    2.1755  -10.1021 H         1 UNK         0.0947 
    112 H112       27.4534   -0.0798  -11.0705 H         1 UNK         0.0806 
    113 H113       25.8951   -0.0239  -10.2653 H         1 UNK         0.0806 
    114 H114       27.2591   -0.8273   -9.4890 H         1 UNK         0.0806 
    115 H115       28.6253    2.4496   -7.4559 H         1 UNK         0.3000 
    116 H116       31.0583    1.1312   -7.4778 H         1 UNK         0.0850 
    117 H117       31.8089    2.9870   -5.9345 H         1 UNK         0.0810 
    118 H118       30.2388    2.3395   -5.5153 H         1 UNK         0.0810 
    119 H119       30.3555    3.8886   -6.3474 H         1 UNK         0.0810 
    120 H120       30.2215    3.6632   -9.6667 H         1 UNK         0.3040 
    121 H121       32.8460    4.5869  -10.3722 H         1 UNK         0.0766 
    122 H122       30.7826    5.8122  -11.0223 H         1 UNK         0.0812 
    123 H123       30.2592    4.4544  -12.0208 H         1 UNK         0.0812 
    124 H124       31.6982    5.3673  -12.4521 H         1 UNK         0.0812 
    125 H125       31.0214    1.6781  -11.1591 H         1 UNK         0.3205 
    126 H126       33.2034    0.7028  -12.9716 H         1 UNK         0.0754 
    127 H127       31.5155   -0.9742  -13.7206 H         1 UNK         0.0769 
    128 H128       30.9638    0.6622  -14.0395 H         1 UNK         0.0769 
    129 H129       30.2966   -0.2419  -12.6830 H         1 UNK         0.0769 
    130 H130       31.0332   -0.1288  -10.2380 H         1 UNK         0.2981 
    131 H131       31.1233   -1.4194   -8.5708 H         1 UNK         0.0541 
    132 H132       31.0345   -2.8124  -11.2367 H         1 UNK         0.3459 
    133 H133       31.4021   -4.4716  -10.8366 H         1 UNK         0.3459 
    134 H134       34.1675   -1.6735   -8.5461 H         1 UNK         0.0612 
    135 H135       33.4481   -0.1207   -8.3144 H         1 UNK         0.0612 
    136 H136       30.7316   -1.1567   -6.4736 H         1 UNK         0.0624 
    137 H137       31.1738   -2.8542   -6.5391 H         1 UNK         0.0624 
@<TRIPOS>BOND
     1    1    2 1    
     2    1   72 1    
     3    1   73 1    
     4    1   74 1    
     5    2    3 2    
     6    2    4 am   BACKBONE|DICT|INTERRES
     7    4    5 1    
     8    4   75 1    
     9    5    6 1    
    10    5   35 1    
    11    5   76 1    
    12    6    7 1    
    13    6   77 1    
    14    6   78 1    
    15    7    8 1    
    16    8    9 1    
    17    8   79 1    
    18    8   80 1    
    19    9   10 ar   
    20    9   14 ar   
    21   10   11 ar   
    22   10   81 1    
    23   11   12 ar   
    24   11   71 1    
    25   12   13 ar   
    26   12   82 1    
    27   13   14 ar   
    28   13   15 1    
    29   14   83 1    
    30   15   16 1    
    31   15   84 1    
    32   15   85 1    
    33   16   17 1    
    34   17   18 1    
    35   17   86 1    
    36   17   87 1    
    37   18   19 1    
    38   18   37 1    
    39   18   88 1    
    40   19   20 am   BACKBONE|DICT|INTERRES
    41   19   89 1    
    42   20   21 2    
    43   20   22 1    
    44   22   23 1    
    45   22   24 1    
    46   22   90 1    
    47   23   91 1    
    48   23   92 1    
    49   23   93 1    
    50   24   25 am   BACKBONE|DICT|INTERRES
    51   24   94 1    
    52   25   26 2    
    53   25   27 1    
    54   27   28 1    
    55   27   29 1    
    56   27   95 1    
    57   28   96 1    
    58   28   97 1    
    59   28   98 1    
    60   29   30 am   BACKBONE|DICT|INTERRES
    61   29   99 1    
    62   30   31 2    
    63   30   32 1    
    64   32   33 1    
    65   32   34 1    
    66   32  100 1    
    67   33  101 1    
    68   33  102 1    
    69   33  103 1    
    70   34   35 am   BACKBONE|DICT|INTERRES
    71   34  104 1    
    72   35   36 2    
    73   37   38 2    
    74   37   39 am   BACKBONE|DICT|INTERRES
    75   39   40 1    
    76   39  105 1    
    77   40   41 1    
    78   40   42 1    
    79   40  106 1    
    80   41  107 1    
    81   41  108 1    
    82   41  109 1    
    83   42   43 2    
    84   42   44 am   BACKBONE|DICT|INTERRES
    85   44   45 1    
    86   44  110 1    
    87   45   46 1    
    88   45   47 1    
    89   45  111 1    
    90   46  112 1    
    91   46  113 1    
    92   46  114 1    
    93   47   48 2    
    94   47   49 am   BACKBONE|DICT|INTERRES
    95   49   50 1    
    96   49  115 1    
    97   50   51 1    
    98   50   52 1    
    99   50  116 1    
   100   51  117 1    
   101   51  118 1    
   102   51  119 1    
   103   52   53 2    
   104   52   54 am   BACKBONE|DICT|INTERRES
   105   54   55 1    
   106   54  120 1    
   107   55   56 1    
   108   55   57 1    
   109   55  121 1    
   110   56  122 1    
   111   56  123 1    
   112   56  124 1    
   113   57   58 2    
   114   57   59 am   BACKBONE|DICT|INTERRES
   115   59   60 1    
   116   59  125 1    
   117   60   61 1    
   118   60   62 1    
   119   60  126 1    
   120   61  127 1    
   121   61  128 1    
   122   61  129 1    
   123   62   63 2    
   124   62   64 am   BACKBONE|DICT|INTERRES
   125   64   65 1    
   126   64  130 1    
   127   65   66 1    
   128   65   69 1    
   129   65  131 1    
   130   66   67 am   BACKBONE|DICT|INTERRES
   131   66   68 2    
   132   67  132 1    
   133   67  133 1    
   134   69   70 1    
   135   69  134 1    
   136   69  135 1    
   137   70   71 1    
   138   71  136 1    
   139   71  137 1    
@<TRIPOS>SUBSTRUCTURE
     1 UNK         1 GROUP             0       ****    0 ROOT    
