@<TRIPOS>MOLECULE
3R137
137   139    1
SMALL
USER_CHARGES


@<TRIPOS>ATOM
      1 CA         28.0520   -5.9531    0.8781 C.3       0 UNK        -0.2020 
      2 C          27.8047   -4.4543    0.9623 C.2       0 UNK         0.4855 
      3 O          27.1480   -3.9934    1.8961 O.2       0 UNK        -0.5197 
      4 N          28.3292   -3.6915   -0.0056 N.am      1 UNK        -0.4892 
      5 CA         28.1875   -2.2325   -0.0964 C.3       1 UNK         0.0835 
      6 C6         29.1510   -1.6159   -1.1412 C.3       12 UNK        -0.0855 
      7 S7         30.9164   -1.8313   -0.7332 S.3       12 UNK        -0.2931 
      8 C8         31.3645   -3.3889   -1.5716 C.3       12 UNK         0.0378 
      9 C9         31.0262   -3.3986   -3.0574 C.ar      12 UNK        -0.0802 
     10 C10        31.7134   -2.5625   -3.9410 C.ar      12 UNK        -0.0944 
     11 C11        31.4535   -2.6054   -5.3178 C.ar      12 UNK        -0.0787 
     12 C12        30.4774   -3.4904   -5.7924 C.ar      12 UNK        -0.0862 
     13 C13        29.7734   -4.3299   -4.9205 C.ar      12 UNK        -0.0733 
     14 C14        30.0578   -4.2765   -3.5535 C.ar      12 UNK        -0.0832 
     15 C15        28.7696   -5.3664   -5.4287 C.3       12 UNK         0.0240 
     16 S16        27.7693   -4.8472   -6.8641 S.3       12 UNK        -0.2522 
     17 C17        26.6157   -3.6512   -6.1133 C.3       12 UNK        -0.0967 
     18 CA         26.4031   -2.4111   -7.0165 C.3       5 UNK         0.0660 
     19 N          25.1612   -1.7029   -6.6961 N.am      5 UNK        -0.4015 
     20 C          24.6043   -0.7542   -7.4636 C.2       4 UNK         0.4946 
     21 O          25.0605   -0.3879   -8.5457 O.2       4 UNK        -0.5353 
     22 CA         23.3423   -0.0699   -6.9142 C.3       4 UNK         0.0277 
     23 CB         22.0986   -0.9381   -7.1634 C.3       4 UNK        -0.1981 
     24 N          23.4473    0.2496   -5.4891 N.am      4 UNK        -0.4209 
     25 C          24.3223    1.1266   -4.9768 C.2       3 UNK         0.4942 
     26 O          25.1113    1.7854   -5.6521 O.2       3 UNK        -0.5208 
     27 CA         24.3542    1.2609   -3.4471 C.3       3 UNK         0.0250 
     28 CB         23.2830    2.2545   -2.9698 C.3       3 UNK        -0.1990 
     29 N          24.2073   -0.0083   -2.7254 N.am      3 UNK        -0.4232 
     30 C          25.0064   -1.0741   -2.8720 C.2       2 UNK         0.4993 
     31 O          25.8914   -1.1674   -3.7273 O.2       2 UNK        -0.5286 
     32 CA         24.7906   -2.2416   -1.8969 C.3       2 UNK         0.0209 
     33 CB         24.2180   -3.4640   -2.6330 C.3       2 UNK        -0.1931 
     34 N          26.0616   -2.6037   -1.2697 N.am      2 UNK        -0.4546 
     35 C          26.7452   -1.8073   -0.4337 C.2       1 UNK         0.5154 
     36 O          26.2930   -0.7639    0.0411 O.2       1 UNK        -0.5181 
     37 C          27.6081   -1.4563   -6.9715 C.2       5 UNK         0.5014 
     38 O          28.3978   -1.4279   -7.9182 O.2       5 UNK        -0.5248 
     39 N          27.6910   -0.6627   -5.8927 N.am      6 UNK        -0.4434 
     40 CA         28.7143    0.3603   -5.6903 C.3       6 UNK         0.0363 
     41 CB         28.5355    1.0184   -4.3147 C.3       6 UNK        -0.1936 
     42 C          28.7319    1.4112   -6.8103 C.2       6 UNK         0.5081 
     43 O          29.8094    1.7355   -7.3037 O.2       6 UNK        -0.5248 
     44 N          27.5485    1.8845   -7.2254 N.am      7 UNK        -0.4718 
     45 CA         27.3779    2.7980   -8.3553 C.3       7 UNK         0.0273 
     46 CB         25.9344    3.3251   -8.3885 C.3       7 UNK        -0.1935 
     47 C          27.7561    2.1607   -9.7021 C.2       7 UNK         0.5018 
     48 O          28.5071    2.7743  -10.4606 O.2       7 UNK        -0.5186 
     49 N          27.2435    0.9505   -9.9748 N.am      8 UNK        -0.4240 
     50 CA         27.4546    0.2248  -11.2321 C.3       8 UNK         0.0235 
     51 CB         26.5656   -1.0285  -11.2733 C.3       8 UNK        -0.2000 
     52 C          28.9213   -0.1512  -11.4898 C.2       8 UNK         0.4941 
     53 O          29.4030    0.0404  -12.6071 O.2       8 UNK        -0.5273 
     54 N          29.6038   -0.6679  -10.4597 N.am      9 UNK        -0.4262 
     55 CA         31.0124   -1.0686  -10.5280 C.3       9 UNK         0.0264 
     56 CB         31.2073   -2.3396   -9.6884 C.3       9 UNK        -0.1955 
     57 C          31.9929    0.0576  -10.1388 C.2       9 UNK         0.5031 
     58 O          33.2027   -0.1714  -10.1787 O.2       9 UNK        -0.5390 
     59 N          31.4691    1.2485   -9.8108 N.am      10 UNK        -0.4204 
     60 CA         32.1807    2.4982   -9.5155 C.3       10 UNK         0.0237 
     61 CB         32.8839    3.0331  -10.7819 C.3       10 UNK        -0.1985 
     62 C          33.1178    2.4098   -8.2936 C.2       10 UNK         0.4970 
     63 O          34.2749    2.8292   -8.3713 O.2       10 UNK        -0.4914 
     64 N          32.5894    1.8899   -7.1813 N.am      11 UNK        -0.4285 
     65 CA         33.2336    1.9148   -5.8607 C.3       11 UNK         0.1007 
     66 C          32.8613    3.2094   -5.0915 C.2       11 UNK         0.5703 
     67 N          33.7579    3.7083   -4.2513 N.am      11 UNK        -0.7361 
     68 O          31.7627    3.7471   -5.2187 O.2       11 UNK        -0.4986 
     69 C69        32.8901    0.6562   -5.0237 C.3       12 UNK        -0.0947 
     70 S70        33.6642   -0.8400   -5.7188 S.3       12 UNK        -0.2240 
     71 C71        32.2136   -1.7535   -6.3394 C.3       12 UNK         0.0194 
     72 H72        28.5725   -6.2976    1.7713 H         1 UNK         0.0906 
     73 H73        27.1040   -6.4861    0.8098 H         1 UNK         0.0906 
     74 H74        28.6549   -6.2214    0.0108 H         1 UNK         0.0906 
     75 H75        28.8776   -4.1220   -0.7330 H         1 UNK         0.3140 
     76 H76        28.4256   -1.8104    0.8829 H         1 UNK         0.1085 
     77 H77        28.9419   -1.9968   -2.1421 H         1 UNK         0.0836 
     78 H78        28.9865   -0.5381   -1.2036 H         1 UNK         0.0836 
     79 H79        32.4382   -3.5444   -1.4563 H         1 UNK         0.0731 
     80 H80        30.8901   -4.2246   -1.0566 H         1 UNK         0.0731 
     81 H81        32.4621   -1.8953   -3.5396 H         1 UNK         0.1312 
     82 H82        30.2798   -3.5427   -6.8536 H         1 UNK         0.1406 
     83 H83        29.5422   -4.9452   -2.8785 H         1 UNK         0.1631 
     84 H84        28.0904   -5.6672   -4.6293 H         1 UNK         0.0717 
     85 H85        29.3253   -6.2619   -5.7094 H         1 UNK         0.0717 
     86 H86        25.6696   -4.1747   -5.9674 H         1 UNK         0.0934 
     87 H87        26.9564   -3.3643   -5.1159 H         1 UNK         0.0934 
     88 H88        26.3021   -2.7564   -8.0481 H         1 UNK         0.0739 
     89 H89        24.7626   -1.8823   -5.7864 H         1 UNK         0.3093 
     90 H90        23.2157    0.8694   -7.4575 H         1 UNK         0.0818 
     91 H91        21.1875   -0.4218   -6.8604 H         1 UNK         0.0819 
     92 H92        21.9962   -1.1751   -8.2235 H         1 UNK         0.0819 
     93 H93        22.1453   -1.8835   -6.6215 H         1 UNK         0.0819 
     94 H94        22.8332   -0.2424   -4.8566 H         1 UNK         0.3041 
     95 H95        25.3322    1.6670   -3.1810 H         1 UNK         0.0784 
     96 H96        23.3837    3.2125   -3.4823 H         1 UNK         0.0793 
     97 H97        22.2741    1.8869   -3.1615 H         1 UNK         0.0793 
     98 H98        23.3719    2.4518   -1.9013 H         1 UNK         0.0793 
     99 H99        23.5073   -0.0262   -1.9974 H         1 UNK         0.3024 
    100 H100       24.0919   -1.9413   -1.1128 H         1 UNK         0.1171 
    101 H101       23.2637   -3.2250   -3.1043 H         1 UNK         0.0786 
    102 H102       24.0399   -4.2916   -1.9461 H         1 UNK         0.0786 
    103 H103       24.8897   -3.8180   -3.4159 H         1 UNK         0.0786 
    104 H104       26.5179   -3.4349   -1.6135 H         1 UNK         0.2977 
    105 H105       27.0011   -0.7736   -5.1508 H         1 UNK         0.3127 
    106 H106       29.6770   -0.1504   -5.6977 H         1 UNK         0.0770 
    107 H107       27.5790    1.5353   -4.2368 H         1 UNK         0.0814 
    108 H108       29.3216    1.7520   -4.1300 H         1 UNK         0.0814 
    109 H109       28.5834    0.2798   -3.5153 H         1 UNK         0.0814 
    110 H110       26.7042    1.6088   -6.7297 H         1 UNK         0.2983 
    111 H111       28.0443    3.6487   -8.1963 H         1 UNK         0.0947 
    112 H112       25.7857    4.0089   -9.2252 H         1 UNK         0.0806 
    113 H113       25.6928    3.8713   -7.4766 H         1 UNK         0.0806 
    114 H114       25.2106    2.5158   -8.4929 H         1 UNK         0.0806 
    115 H115       26.6136    0.5174   -9.3034 H         1 UNK         0.3000 
    116 H116       27.1413    0.8849  -12.0438 H         1 UNK         0.0850 
    117 H117       26.7166   -1.5876  -12.1978 H         1 UNK         0.0810 
    118 H118       25.5089   -0.7653  -11.2247 H         1 UNK         0.0810 
    119 H119       26.7809   -1.7025  -10.4431 H         1 UNK         0.0810 
    120 H120       29.1261   -0.8204   -9.5718 H         1 UNK         0.3040 
    121 H121       31.2625   -1.3321  -11.5579 H         1 UNK         0.0766 
    122 H122       32.2596   -2.6153   -9.6095 H         1 UNK         0.0812 
    123 H123       30.6847   -3.1854  -10.1351 H         1 UNK         0.0812 
    124 H124       30.8144   -2.2113   -8.6836 H         1 UNK         0.0812 
    125 H125       30.4603    1.3146   -9.7707 H         1 UNK         0.3205 
    126 H126       31.4086    3.2207   -9.2455 H         1 UNK         0.0754 
    127 H127       33.3142    4.0193  -10.6038 H         1 UNK         0.0769 
    128 H128       32.1830    3.1319  -11.6110 H         1 UNK         0.0769 
    129 H129       33.6939    2.3775  -11.1033 H         1 UNK         0.0769 
    130 H130       31.5917    1.6821   -7.1872 H         1 UNK         0.2981 
    131 H131       34.3166    1.9273   -6.0013 H         1 UNK         0.0541 
    132 H132       34.6583    3.2718   -4.1281 H         1 UNK         0.3459 
    133 H133       33.5303    4.5418   -3.7320 H         1 UNK         0.3459 
    134 H134       31.8109    0.5245   -4.9371 H         1 UNK         0.0612 
    135 H135       33.2641    0.7585   -4.0033 H         1 UNK         0.0612 
    136 H136       31.5299   -1.0516   -6.8177 H         1 UNK         0.0624 
    137 H137       32.5806   -2.4168   -7.1226 H         1 UNK         0.0624 
@<TRIPOS>BOND
     1    1    2 1    
     2    1   72 1    
     3    1   73 1    
     4    1   74 1    
     5    2    3 2    
     6    2    4 am   BACKBONE|DICT|INTERRES
     7    4    5 1    
     8    4   75 1    
     9    5    6 1    
    10    5   35 1    
    11    5   76 1    
    12    6    7 1    
    13    6   77 1    
    14    6   78 1    
    15    7    8 1    
    16    8    9 1    
    17    8   79 1    
    18    8   80 1    
    19    9   10 ar   
    20    9   14 ar   
    21   10   11 ar   
    22   10   81 1    
    23   11   12 ar   
    24   11   71 1    
    25   12   13 ar   
    26   12   82 1    
    27   13   14 ar   
    28   13   15 1    
    29   14   83 1    
    30   15   16 1    
    31   15   84 1    
    32   15   85 1    
    33   16   17 1    
    34   17   18 1    
    35   17   86 1    
    36   17   87 1    
    37   18   19 1    
    38   18   37 1    
    39   18   88 1    
    40   19   20 am   BACKBONE|DICT|INTERRES
    41   19   89 1    
    42   20   21 2    
    43   20   22 1    
    44   22   23 1    
    45   22   24 1    
    46   22   90 1    
    47   23   91 1    
    48   23   92 1    
    49   23   93 1    
    50   24   25 am   BACKBONE|DICT|INTERRES
    51   24   94 1    
    52   25   26 2    
    53   25   27 1    
    54   27   28 1    
    55   27   29 1    
    56   27   95 1    
    57   28   96 1    
    58   28   97 1    
    59   28   98 1    
    60   29   30 am   BACKBONE|DICT|INTERRES
    61   29   99 1    
    62   30   31 2    
    63   30   32 1    
    64   32   33 1    
    65   32   34 1    
    66   32  100 1    
    67   33  101 1    
    68   33  102 1    
    69   33  103 1    
    70   34   35 am   BACKBONE|DICT|INTERRES
    71   34  104 1    
    72   35   36 2    
    73   37   38 2    
    74   37   39 am   BACKBONE|DICT|INTERRES
    75   39   40 1    
    76   39  105 1    
    77   40   41 1    
    78   40   42 1    
    79   40  106 1    
    80   41  107 1    
    81   41  108 1    
    82   41  109 1    
    83   42   43 2    
    84   42   44 am   BACKBONE|DICT|INTERRES
    85   44   45 1    
    86   44  110 1    
    87   45   46 1    
    88   45   47 1    
    89   45  111 1    
    90   46  112 1    
    91   46  113 1    
    92   46  114 1    
    93   47   48 2    
    94   47   49 am   BACKBONE|DICT|INTERRES
    95   49   50 1    
    96   49  115 1    
    97   50   51 1    
    98   50   52 1    
    99   50  116 1    
   100   51  117 1    
   101   51  118 1    
   102   51  119 1    
   103   52   53 2    
   104   52   54 am   BACKBONE|DICT|INTERRES
   105   54   55 1    
   106   54  120 1    
   107   55   56 1    
   108   55   57 1    
   109   55  121 1    
   110   56  122 1    
   111   56  123 1    
   112   56  124 1    
   113   57   58 2    
   114   57   59 am   BACKBONE|DICT|INTERRES
   115   59   60 1    
   116   59  125 1    
   117   60   61 1    
   118   60   62 1    
   119   60  126 1    
   120   61  127 1    
   121   61  128 1    
   122   61  129 1    
   123   62   63 2    
   124   62   64 am   BACKBONE|DICT|INTERRES
   125   64   65 1    
   126   64  130 1    
   127   65   66 1    
   128   65   69 1    
   129   65  131 1    
   130   66   67 am   BACKBONE|DICT|INTERRES
   131   66   68 2    
   132   67  132 1    
   133   67  133 1    
   134   69   70 1    
   135   69  134 1    
   136   69  135 1    
   137   70   71 1    
   138   71  136 1    
   139   71  137 1    
@<TRIPOS>SUBSTRUCTURE
     1 UNK         1 GROUP             0       ****    0 ROOT    
