@<TRIPOS>MOLECULE
3R137
137   139    1
SMALL
USER_CHARGES


@<TRIPOS>ATOM
      1 CA         30.6351    0.5964   -3.0719 C.3       0 UNK        -0.2020 
      2 C          29.8441   -0.6484   -2.7056 C.2       0 UNK         0.4855 
      3 O          29.1343   -1.1919   -3.5483 O.2       0 UNK        -0.5197 
      4 N          29.9495   -1.1025   -1.4507 N.am      1 UNK        -0.4892 
      5 CA         29.2513   -2.2801   -0.9251 C.3       1 UNK         0.0835 
      6 C6         30.0521   -2.9244    0.2365 C.3       12 UNK        -0.0855 
      7 S7         29.6183   -4.6786    0.4905 S.3       12 UNK        -0.2931 
      8 C8         30.9422   -5.5275   -0.4317 C.3       12 UNK         0.0378 
      9 C9         30.8240   -5.3154   -1.9354 C.ar      12 UNK        -0.0802 
     10 C10        31.7748   -4.5517   -2.6237 C.ar      12 UNK        -0.0944 
     11 C11        31.6776   -4.3774   -4.0086 C.ar      12 UNK        -0.0787 
     12 C12        30.6231   -4.9793   -4.7004 C.ar      12 UNK        -0.0862 
     13 C13        29.6401   -5.7031   -4.0191 C.ar      12 UNK        -0.0733 
     14 C14        29.7576   -5.8860   -2.6389 C.ar      12 UNK        -0.0832 
     15 C15        28.4362   -6.2543   -4.7746 C.3       12 UNK         0.0240 
     16 S16        26.9208   -5.2792   -4.4686 S.3       12 UNK        -0.2522 
     17 C17        27.4236   -3.6071   -4.9944 C.3       12 UNK        -0.0967 
     18 CA         26.6863   -3.1034   -6.2571 C.3       5 UNK         0.0660 
     19 N          25.3076   -2.7047   -5.9703 N.am      5 UNK        -0.4015 
     20 C          24.3303   -2.6255   -6.8827 C.2       4 UNK         0.4946 
     21 O          24.4545   -2.9857   -8.0540 O.2       4 UNK        -0.5353 
     22 CA         22.9788   -2.0504   -6.4184 C.3       4 UNK         0.0277 
     23 CB         22.0273   -3.1858   -6.0071 C.3       4 UNK        -0.1981 
     24 N          23.0939   -1.0935   -5.3135 N.am      4 UNK        -0.4209 
     25 C          23.6175    0.1364   -5.4197 C.2       3 UNK         0.4942 
     26 O          24.0467    0.6149   -6.4707 O.2       3 UNK        -0.5208 
     27 CA         23.7267    0.9518   -4.1157 C.3       3 UNK         0.0250 
     28 CB         22.4016    1.6711   -3.8167 C.3       3 UNK        -0.1990 
     29 N          24.1424    0.1709   -2.9391 N.am      3 UNK        -0.4232 
     30 C          25.2606   -0.5647   -2.8776 C.2       2 UNK         0.4993 
     31 O          26.0138   -0.7237   -3.8386 O.2       2 UNK        -0.5286 
     32 CA         25.5801   -1.2792   -1.5604 C.3       2 UNK         0.0209 
     33 CB         24.7020   -2.5323   -1.3883 C.3       2 UNK        -0.1931 
     34 N          26.9876   -1.6661   -1.6032 N.am      2 UNK        -0.4546 
     35 C          27.7875   -1.9301   -0.5679 C.2       1 UNK         0.5154 
     36 O          27.4204   -1.8656    0.6073 O.2       1 UNK        -0.5181 
     37 C          27.4564   -1.9254   -6.8811 C.2       5 UNK         0.5014 
     38 O          28.1319   -2.1137   -7.8940 O.2       5 UNK        -0.5248 
     39 N          27.3490   -0.7468   -6.2507 N.am      6 UNK        -0.4434 
     40 CA         28.0368    0.4862   -6.6203 C.3       6 UNK         0.0363 
     41 CB         27.7548    1.5709   -5.5681 C.3       6 UNK        -0.1936 
     42 C          27.6575    0.9792   -8.0199 C.2       6 UNK         0.5081 
     43 O          28.5582    1.2454   -8.8170 O.2       6 UNK        -0.5248 
     44 N          26.3458    1.0815   -8.2896 N.am      7 UNK        -0.4718 
     45 CA         25.7401    1.5316   -9.5482 C.3       7 UNK         0.0273 
     46 CB         25.8166    0.3958  -10.5941 C.3       7 UNK        -0.1935 
     47 C          26.3357    2.8763  -10.0191 C.2       7 UNK         0.5018 
     48 O          26.2206    3.8669   -9.2950 O.2       7 UNK        -0.5186 
     49 N          26.9903    2.8753  -11.1868 N.am      8 UNK        -0.4240 
     50 CA         27.7900    3.9861  -11.7100 C.3       8 UNK         0.0235 
     51 CB         27.3405    4.2752  -13.1539 C.3       8 UNK        -0.2000 
     52 C          29.3036    3.6897  -11.6560 C.2       8 UNK         0.4941 
     53 O          30.0861    4.5201  -12.1206 O.2       8 UNK        -0.5273 
     54 N          29.7004    2.5230  -11.1255 N.am      9 UNK        -0.4262 
     55 CA         31.0929    2.0784  -11.0336 C.3       9 UNK         0.0264 
     56 CB         31.1482    0.5427  -11.1054 C.3       9 UNK        -0.1955 
     57 C          31.7734    2.5829   -9.7526 C.2       9 UNK         0.5031 
     58 O          32.9207    3.0249   -9.8229 O.2       9 UNK        -0.5390 
     59 N          31.0511    2.5087   -8.6225 N.am      10 UNK        -0.4204 
     60 CA         31.4553    2.9092   -7.2682 C.3       10 UNK         0.0237 
     61 CB         31.5521    4.4460   -7.1681 C.3       10 UNK        -0.1985 
     62 C          32.7384    2.1934   -6.7999 C.2       10 UNK         0.4970 
     63 O          33.7723    2.8344   -6.6042 O.2       10 UNK        -0.4914 
     64 N          32.6428    0.8666   -6.6471 N.am      11 UNK        -0.4285 
     65 CA         33.7425   -0.0441   -6.2787 C.3       11 UNK         0.1007 
     66 C          34.3519    0.1168   -4.8504 C.2       11 UNK         0.5703 
     67 N          33.8909    1.0424   -4.0189 N.am      11 UNK        -0.7361 
     68 O          35.2779   -0.6083   -4.4941 O.2       11 UNK        -0.4986 
     69 C69        33.3752   -1.5168   -6.6063 C.3       12 UNK        -0.0947 
     70 S70        31.9486   -2.1545   -5.6593 S.3       12 UNK        -0.2240 
     71 C71        32.7100   -3.5520   -4.7679 C.3       12 UNK         0.0194 
     72 H72        31.4731    0.7534   -2.3934 H         1 UNK         0.0906 
     73 H73        31.0292    0.4991   -4.0825 H         1 UNK         0.0906 
     74 H74        29.9932    1.4758   -3.0377 H         1 UNK         0.0906 
     75 H75        30.5145   -0.5942   -0.7851 H         1 UNK         0.3140 
     76 H76        29.2036   -3.0156   -1.7322 H         1 UNK         0.1085 
     77 H77        31.1219   -2.8703    0.0279 H         1 UNK         0.0836 
     78 H78        29.9122   -2.3788    1.1716 H         1 UNK         0.0836 
     79 H79        31.9142   -5.1957   -0.0631 H         1 UNK         0.0731 
     80 H80        30.8871   -6.5963   -0.2196 H         1 UNK         0.0731 
     81 H81        32.5926   -4.0964   -2.0821 H         1 UNK         0.1312 
     82 H82        30.5441   -4.8404   -5.7702 H         1 UNK         0.1406 
     83 H83        29.0044   -6.4517   -2.1069 H         1 UNK         0.1631 
     84 H84        28.2596   -7.2876   -4.4729 H         1 UNK         0.0717 
     85 H85        28.6317   -6.2784   -5.8478 H         1 UNK         0.0717 
     86 H86        27.2566   -2.9371   -4.1534 H         1 UNK         0.0934 
     87 H87        28.4987   -3.5808   -5.1580 H         1 UNK         0.0934 
     88 H88        26.6751   -3.9108   -6.9928 H         1 UNK         0.0739 
     89 H89        25.1413   -2.3267   -5.0480 H         1 UNK         0.3093 
     90 H90        22.5383   -1.5277   -7.2704 H         1 UNK         0.0818 
     91 H91        21.0377   -2.8038   -5.7556 H         1 UNK         0.0819 
     92 H92        21.8987   -3.9004   -6.8215 H         1 UNK         0.0819 
     93 H93        22.4045   -3.7389   -5.1459 H         1 UNK         0.0819 
     94 H94        22.7665   -1.3971   -4.4079 H         1 UNK         0.3041 
     95 H95        24.4923    1.7129   -4.2795 H         1 UNK         0.0784 
     96 H96        22.0817    2.2705   -4.6705 H         1 UNK         0.0793 
     97 H97        21.5991    0.9670   -3.5938 H         1 UNK         0.0793 
     98 H98        22.5001    2.3486   -2.9683 H         1 UNK         0.0793 
     99 H99        23.5585    0.2438   -2.1178 H         1 UNK         0.3024 
    100 H100       25.4188   -0.5845   -0.7332 H         1 UNK         0.1171 
    101 H101       23.6426   -2.2742   -1.3653 H         1 UNK         0.0786 
    102 H102       24.9264   -3.0481   -0.4544 H         1 UNK         0.0786 
    103 H103       24.8505   -3.2422   -2.2035 H         1 UNK         0.0786 
    104 H104       27.4073   -1.6059   -2.5297 H         1 UNK         0.2977 
    105 H105       26.8175   -0.7145   -5.3799 H         1 UNK         0.3127 
    106 H106       29.1075    0.2728   -6.6147 H         1 UNK         0.0770 
    107 H107       26.6927    1.8110   -5.5118 H         1 UNK         0.0814 
    108 H108       28.2865    2.4941   -5.8005 H         1 UNK         0.0814 
    109 H109       28.0709    1.2503   -4.5762 H         1 UNK         0.0814 
    110 H110       25.6841    0.8610   -7.5492 H         1 UNK         0.2983 
    111 H111       24.6865    1.7213   -9.3363 H         1 UNK         0.0947 
    112 H112       25.3206    0.6756  -11.5245 H         1 UNK         0.0806 
    113 H113       25.3147   -0.4998  -10.2263 H         1 UNK         0.0806 
    114 H114       26.8448    0.1157  -10.8271 H         1 UNK         0.0806 
    115 H115       27.0240    2.0130  -11.7122 H         1 UNK         0.3000 
    116 H116       27.6249    4.8873  -11.1159 H         1 UNK         0.0850 
    117 H117       27.8778    5.1284  -13.5702 H         1 UNK         0.0810 
    118 H118       26.2776    4.5138  -13.1969 H         1 UNK         0.0810 
    119 H119       27.5203    3.4238  -13.8115 H         1 UNK         0.0810 
    120 H120       29.0158    1.9474  -10.6463 H         1 UNK         0.3040 
    121 H121       31.6511    2.4714  -11.8864 H         1 UNK         0.0766 
    122 H122       32.1778    0.1868  -11.0472 H         1 UNK         0.0812 
    123 H123       30.7323    0.1762  -12.0440 H         1 UNK         0.0812 
    124 H124       30.5953    0.0745  -10.2899 H         1 UNK         0.0812 
    125 H125       30.1234    2.0903   -8.6989 H         1 UNK         0.3205 
    126 H126       30.6571    2.5893   -6.5973 H         1 UNK         0.0754 
    127 H127       31.7868    4.7571   -6.1494 H         1 UNK         0.0769 
    128 H128       30.6095    4.9196   -7.4430 H         1 UNK         0.0769 
    129 H129       32.3298    4.8482   -7.8185 H         1 UNK         0.0769 
    130 H130       31.7567    0.4168   -6.8207 H         1 UNK         0.2981 
    131 H131       34.5668    0.2155   -6.9454 H         1 UNK         0.0541 
    132 H132       33.1841    1.6914   -4.3205 H         1 UNK         0.3459 
    133 H133       34.3105    1.1351   -3.1078 H         1 UNK         0.3459 
    134 H134       34.2392   -2.1671   -6.4588 H         1 UNK         0.0612 
    135 H135       33.1302   -1.6032   -7.6659 H         1 UNK         0.0612 
    136 H136       33.2208   -4.2000   -5.4814 H         1 UNK         0.0624 
    137 H137       33.4732   -3.1640   -4.0914 H         1 UNK         0.0624 
@<TRIPOS>BOND
     1    1    2 1    
     2    1   72 1    
     3    1   73 1    
     4    1   74 1    
     5    2    3 2    
     6    2    4 am   BACKBONE|DICT|INTERRES
     7    4    5 1    
     8    4   75 1    
     9    5    6 1    
    10    5   35 1    
    11    5   76 1    
    12    6    7 1    
    13    6   77 1    
    14    6   78 1    
    15    7    8 1    
    16    8    9 1    
    17    8   79 1    
    18    8   80 1    
    19    9   10 ar   
    20    9   14 ar   
    21   10   11 ar   
    22   10   81 1    
    23   11   12 ar   
    24   11   71 1    
    25   12   13 ar   
    26   12   82 1    
    27   13   14 ar   
    28   13   15 1    
    29   14   83 1    
    30   15   16 1    
    31   15   84 1    
    32   15   85 1    
    33   16   17 1    
    34   17   18 1    
    35   17   86 1    
    36   17   87 1    
    37   18   19 1    
    38   18   37 1    
    39   18   88 1    
    40   19   20 am   BACKBONE|DICT|INTERRES
    41   19   89 1    
    42   20   21 2    
    43   20   22 1    
    44   22   23 1    
    45   22   24 1    
    46   22   90 1    
    47   23   91 1    
    48   23   92 1    
    49   23   93 1    
    50   24   25 am   BACKBONE|DICT|INTERRES
    51   24   94 1    
    52   25   26 2    
    53   25   27 1    
    54   27   28 1    
    55   27   29 1    
    56   27   95 1    
    57   28   96 1    
    58   28   97 1    
    59   28   98 1    
    60   29   30 am   BACKBONE|DICT|INTERRES
    61   29   99 1    
    62   30   31 2    
    63   30   32 1    
    64   32   33 1    
    65   32   34 1    
    66   32  100 1    
    67   33  101 1    
    68   33  102 1    
    69   33  103 1    
    70   34   35 am   BACKBONE|DICT|INTERRES
    71   34  104 1    
    72   35   36 2    
    73   37   38 2    
    74   37   39 am   BACKBONE|DICT|INTERRES
    75   39   40 1    
    76   39  105 1    
    77   40   41 1    
    78   40   42 1    
    79   40  106 1    
    80   41  107 1    
    81   41  108 1    
    82   41  109 1    
    83   42   43 2    
    84   42   44 am   BACKBONE|DICT|INTERRES
    85   44   45 1    
    86   44  110 1    
    87   45   46 1    
    88   45   47 1    
    89   45  111 1    
    90   46  112 1    
    91   46  113 1    
    92   46  114 1    
    93   47   48 2    
    94   47   49 am   BACKBONE|DICT|INTERRES
    95   49   50 1    
    96   49  115 1    
    97   50   51 1    
    98   50   52 1    
    99   50  116 1    
   100   51  117 1    
   101   51  118 1    
   102   51  119 1    
   103   52   53 2    
   104   52   54 am   BACKBONE|DICT|INTERRES
   105   54   55 1    
   106   54  120 1    
   107   55   56 1    
   108   55   57 1    
   109   55  121 1    
   110   56  122 1    
   111   56  123 1    
   112   56  124 1    
   113   57   58 2    
   114   57   59 am   BACKBONE|DICT|INTERRES
   115   59   60 1    
   116   59  125 1    
   117   60   61 1    
   118   60   62 1    
   119   60  126 1    
   120   61  127 1    
   121   61  128 1    
   122   61  129 1    
   123   62   63 2    
   124   62   64 am   BACKBONE|DICT|INTERRES
   125   64   65 1    
   126   64  130 1    
   127   65   66 1    
   128   65   69 1    
   129   65  131 1    
   130   66   67 am   BACKBONE|DICT|INTERRES
   131   66   68 2    
   132   67  132 1    
   133   67  133 1    
   134   69   70 1    
   135   69  134 1    
   136   69  135 1    
   137   70   71 1    
   138   71  136 1    
   139   71  137 1    
@<TRIPOS>SUBSTRUCTURE
     1 UNK         1 GROUP             0       ****    0 ROOT    
