@<TRIPOS>MOLECULE
3R137
137   139    1
SMALL
USER_CHARGES


@<TRIPOS>ATOM
      1 CA         25.5297   -5.3886   -8.2988 C.3       0 UNK        -0.2020 
      2 C          25.8599   -3.9640   -7.8620 C.2       0 UNK         0.4855 
      3 O          25.5625   -3.0280   -8.5973 O.2       0 UNK        -0.5197 
      4 N          26.4651   -3.7451   -6.6853 N.am      1 UNK        -0.4892 
      5 CA         26.7956   -4.7492   -5.6625 C.3       1 UNK         0.0835 
      6 C6         27.9142   -4.2404   -4.7157 C.3       12 UNK        -0.0855 
      7 S7         27.4277   -2.7905   -3.7112 S.3       12 UNK        -0.2931 
      8 C8         28.5783   -2.9095   -2.3089 C.3       12 UNK         0.0378 
      9 C9         29.7942   -2.0270   -2.5308 C.ar      12 UNK        -0.0802 
     10 C10        30.9078   -2.5097   -3.2224 C.ar      12 UNK        -0.0944 
     11 C11        32.0257   -1.6928   -3.4263 C.ar      12 UNK        -0.0787 
     12 C12        32.0194   -0.3857   -2.9254 C.ar      12 UNK        -0.0862 
     13 C13        30.9183    0.1045   -2.2161 C.ar      12 UNK        -0.0733 
     14 C14        29.8083   -0.7254   -2.0246 C.ar      12 UNK        -0.0832 
     15 C15        30.9739    1.5003   -1.5996 C.3       12 UNK         0.0240 
     16 S16        29.3980    2.4150   -1.6914 S.3       12 UNK        -0.2522 
     17 C17        29.3736    2.9488   -3.4338 C.3       12 UNK        -0.0967 
     18 CA         28.5529    2.0201   -4.3641 C.3       5 UNK         0.0660 
     19 N          27.2111    1.7251   -3.8425 N.am      5 UNK        -0.4015 
     20 C          26.3275    0.8896   -4.4056 C.2       4 UNK         0.4946 
     21 O          26.5263    0.2801   -5.4595 O.2       4 UNK        -0.5353 
     22 CA         24.9958    0.7116   -3.6717 C.3       4 UNK         0.0277 
     23 CB         23.7946    0.7747   -4.6332 C.3       4 UNK        -0.1981 
     24 N          25.0137   -0.5760   -2.9874 N.am      4 UNK        -0.4209 
     25 C          24.3875   -0.8434   -1.8346 C.2       3 UNK         0.4942 
     26 O          23.7227   -0.0135   -1.2103 O.2       3 UNK        -0.5208 
     27 CA         24.5316   -2.2825   -1.2980 C.3       3 UNK         0.0250 
     28 CB         23.6673   -2.5562   -0.0479 C.3       3 UNK        -0.1990 
     29 N          24.2954   -3.2985   -2.3328 N.am      3 UNK        -0.4232 
     30 C          23.1715   -3.5058   -3.0383 C.2       2 UNK         0.4993 
     31 O          22.1268   -2.8737   -2.8746 O.2       2 UNK        -0.5286 
     32 CA         23.2506   -4.5880   -4.1315 C.3       2 UNK         0.0209 
     33 CB         22.0488   -4.5510   -5.0952 C.3       2 UNK        -0.1931 
     34 N          24.4802   -4.4168   -4.9056 N.am      2 UNK        -0.4546 
     35 C          25.5549   -5.2156   -4.8651 C.2       1 UNK         0.5154 
     36 O          25.6053   -6.2615   -4.2178 O.2       1 UNK        -0.5181 
     37 C          28.5224    2.6246   -5.7812 C.2       5 UNK         0.5014 
     38 O          29.4034    2.3217   -6.5854 O.2       5 UNK        -0.5248 
     39 N          27.5116    3.4615   -6.0605 N.am      6 UNK        -0.4434 
     40 CA         27.2907    4.0961   -7.3612 C.3       6 UNK         0.0363 
     41 CB         26.2291    5.1989   -7.2227 C.3       6 UNK        -0.1936 
     42 C          26.8879    3.0924   -8.4531 C.2       6 UNK         0.5081 
     43 O          27.3342    3.2331   -9.5909 O.2       6 UNK        -0.5248 
     44 N          26.0849    2.0824   -8.0866 N.am      7 UNK        -0.4718 
     45 CA         25.6965    0.9801   -8.9719 C.3       7 UNK         0.0273 
     46 CB         24.5029    0.2223   -8.3707 C.3       7 UNK        -0.1935 
     47 C          26.8746    0.0290   -9.2335 C.2       7 UNK         0.5018 
     48 O          27.0656   -0.4048  -10.3701 O.2       7 UNK        -0.5186 
     49 N          27.6755   -0.2200   -8.1868 N.am      8 UNK        -0.4240 
     50 CA         28.9249   -0.9810   -8.2480 C.3       8 UNK         0.0235 
     51 CB         29.3776   -1.3017   -6.8134 C.3       8 UNK        -0.2000 
     52 C          30.0598   -0.2574   -8.9982 C.2       8 UNK         0.4941 
     53 O          31.0731   -0.8935   -9.2867 O.2       8 UNK        -0.5273 
     54 N          29.9116    1.0561   -9.2405 N.am      9 UNK        -0.4262 
     55 CA         30.9160    1.9895   -9.7710 C.3       9 UNK         0.0264 
     56 CB         31.2050    1.6931  -11.2571 C.3       9 UNK        -0.1955 
     57 C          32.1906    2.0182   -8.9029 C.2       9 UNK         0.5031 
     58 O          33.3052    2.0122   -9.4316 O.2       9 UNK        -0.5390 
     59 N          31.9901    1.9615   -7.5760 N.am      10 UNK        -0.4204 
     60 CA         32.9939    1.7803   -6.5186 C.3       10 UNK         0.0237 
     61 CB         33.8382    3.0611   -6.3573 C.3       10 UNK        -0.1985 
     62 C          33.8668    0.5148   -6.6844 C.2       10 UNK         0.4970 
     63 O          34.9625    0.4613   -6.1237 O.2       10 UNK        -0.4914 
     64 N          33.3754   -0.4696   -7.4513 N.am      11 UNK        -0.4285 
     65 CA         34.0737   -1.6954   -7.8672 C.3       11 UNK         0.1007 
     66 C          35.2914   -1.4423   -8.8078 C.2       11 UNK         0.5703 
     67 N          35.3821   -0.2966   -9.4764 N.am      11 UNK        -0.7361 
     68 O          36.1539   -2.3044   -8.9619 O.2       11 UNK        -0.4986 
     69 C69        34.3835   -2.6650   -6.6906 C.3       12 UNK        -0.0947 
     70 S70        32.8905   -3.0540   -5.7127 S.3       12 UNK        -0.2240 
     71 C71        33.2671   -2.2244   -4.1340 C.3       12 UNK         0.0194 
     72 H72        26.4269   -6.0052   -8.3371 H         1 UNK         0.0906 
     73 H73        24.8083   -5.8503   -7.6259 H         1 UNK         0.0906 
     74 H74        25.0922   -5.3865   -9.2971 H         1 UNK         0.0906 
     75 H75        26.6821   -2.7920   -6.4269 H         1 UNK         0.3140 
     76 H76        27.1898   -5.6345   -6.1646 H         1 UNK         0.1085 
     77 H77        28.8030   -3.9804   -5.2927 H         1 UNK         0.0836 
     78 H78        28.2252   -5.0501   -4.0530 H         1 UNK         0.0836 
     79 H79        28.8823   -3.9431   -2.1390 H         1 UNK         0.0731 
     80 H80        28.0568   -2.6001   -1.4021 H         1 UNK         0.0731 
     81 H81        30.9049   -3.5228   -3.6003 H         1 UNK         0.1312 
     82 H82        32.8892    0.2429   -3.0609 H         1 UNK         0.1406 
     83 H83        28.9537   -0.3623   -1.4705 H         1 UNK         0.1631 
     84 H84        31.7627    2.0989   -2.0578 H         1 UNK         0.0717 
     85 H85        31.2449    1.3934   -0.5486 H         1 UNK         0.0717 
     86 H86        28.9667    3.9622   -3.4489 H         1 UNK         0.0934 
     87 H87        30.4002    3.0373   -3.7958 H         1 UNK         0.0934 
     88 H88        29.0769    1.0647   -4.4342 H         1 UNK         0.0739 
     89 H89        26.9824    2.1590   -2.9597 H         1 UNK         0.3093 
     90 H90        24.8942    1.5184   -2.9423 H         1 UNK         0.0818 
     91 H91        23.8136    1.6861   -5.2318 H         1 UNK         0.0819 
     92 H92        23.7835   -0.0724   -5.3190 H         1 UNK         0.0819 
     93 H93        22.8525    0.7653   -4.0848 H         1 UNK         0.0819 
     94 H94        25.5887   -1.2908   -3.4185 H         1 UNK         0.3041 
     95 H95        25.5751   -2.3878   -0.9985 H         1 UNK         0.0784 
     96 H96        23.9274   -1.8746    0.7629 H         1 UNK         0.0793 
     97 H97        22.6041   -2.4257   -0.2520 H         1 UNK         0.0793 
     98 H98        23.8157   -3.5704    0.3227 H         1 UNK         0.0793 
     99 H99        25.0991   -3.8624   -2.5732 H         1 UNK         0.3024 
    100 H100       23.2474   -5.5546   -3.6224 H         1 UNK         0.1171 
    101 H101       21.9688   -3.5897   -5.6044 H         1 UNK         0.0786 
    102 H102       22.1287   -5.3274   -5.8563 H         1 UNK         0.0786 
    103 H103       21.1125   -4.7184   -4.5612 H         1 UNK         0.0786 
    104 H104       24.5525   -3.5672   -5.4486 H         1 UNK         0.2977 
    105 H105       26.8415    3.6654   -5.3336 H         1 UNK         0.3127 
    106 H106       28.2287    4.5624   -7.6712 H         1 UNK         0.0770 
    107 H107       25.2686    4.7999   -6.8943 H         1 UNK         0.0814 
    108 H108       26.0635    5.7009   -8.1771 H         1 UNK         0.0814 
    109 H109       26.5393    5.9615   -6.5081 H         1 UNK         0.0814 
    110 H110       25.8064    2.0076   -7.1188 H         1 UNK         0.2983 
    111 H111       25.3853    1.4027   -9.9300 H         1 UNK         0.0947 
    112 H112       24.1417   -0.5381   -9.0643 H         1 UNK         0.0806 
    113 H113       23.6688    0.8899   -8.1551 H         1 UNK         0.0806 
    114 H114       24.7754   -0.2920   -7.4492 H         1 UNK         0.0806 
    115 H115       27.4009    0.1376   -7.2761 H         1 UNK         0.3000 
    116 H116       28.7226   -1.9191   -8.7690 H         1 UNK         0.0850 
    117 H117       29.7127   -0.4102   -6.2833 H         1 UNK         0.0810 
    118 H118       30.2080   -2.0084   -6.8140 H         1 UNK         0.0810 
    119 H119       28.5733   -1.7450   -6.2307 H         1 UNK         0.0810 
    120 H120       29.0533    1.4855   -8.9213 H         1 UNK         0.3040 
    121 H121       30.4758    2.9857   -9.7066 H         1 UNK         0.0766 
    122 H122       31.6916    0.7262  -11.3900 H         1 UNK         0.0812 
    123 H123       30.2876    1.6910  -11.8456 H         1 UNK         0.0812 
    124 H124       31.8635    2.4498  -11.6852 H         1 UNK         0.0812 
    125 H125       31.0219    2.0005   -7.2514 H         1 UNK         0.3205 
    126 H126       32.4316    1.6344   -5.5950 H         1 UNK         0.0754 
    127 H127       34.4936    2.9949   -5.4880 H         1 UNK         0.0769 
    128 H128       33.2052    3.9372   -6.2165 H         1 UNK         0.0769 
    129 H129       34.4691    3.2392   -7.2288 H         1 UNK         0.0769 
    130 H130       32.4794   -0.3368   -7.9053 H         1 UNK         0.2981 
    131 H131       33.3587   -2.2123   -8.5076 H         1 UNK         0.0541 
    132 H132       36.1667   -0.1460  -10.0899 H         1 UNK         0.3459 
    133 H133       34.6717    0.4205   -9.3798 H         1 UNK         0.3459 
    134 H134       35.1684   -2.2613   -6.0499 H         1 UNK         0.0612 
    135 H135       34.7697   -3.6105   -7.0746 H         1 UNK         0.0612 
    136 H136       33.9668   -1.4072   -4.3107 H         1 UNK         0.0624 
    137 H137       33.7783   -2.9301   -3.4784 H         1 UNK         0.0624 
@<TRIPOS>BOND
     1    1    2 1    
     2    1   72 1    
     3    1   73 1    
     4    1   74 1    
     5    2    3 2    
     6    2    4 am   BACKBONE|DICT|INTERRES
     7    4    5 1    
     8    4   75 1    
     9    5    6 1    
    10    5   35 1    
    11    5   76 1    
    12    6    7 1    
    13    6   77 1    
    14    6   78 1    
    15    7    8 1    
    16    8    9 1    
    17    8   79 1    
    18    8   80 1    
    19    9   10 ar   
    20    9   14 ar   
    21   10   11 ar   
    22   10   81 1    
    23   11   12 ar   
    24   11   71 1    
    25   12   13 ar   
    26   12   82 1    
    27   13   14 ar   
    28   13   15 1    
    29   14   83 1    
    30   15   16 1    
    31   15   84 1    
    32   15   85 1    
    33   16   17 1    
    34   17   18 1    
    35   17   86 1    
    36   17   87 1    
    37   18   19 1    
    38   18   37 1    
    39   18   88 1    
    40   19   20 am   BACKBONE|DICT|INTERRES
    41   19   89 1    
    42   20   21 2    
    43   20   22 1    
    44   22   23 1    
    45   22   24 1    
    46   22   90 1    
    47   23   91 1    
    48   23   92 1    
    49   23   93 1    
    50   24   25 am   BACKBONE|DICT|INTERRES
    51   24   94 1    
    52   25   26 2    
    53   25   27 1    
    54   27   28 1    
    55   27   29 1    
    56   27   95 1    
    57   28   96 1    
    58   28   97 1    
    59   28   98 1    
    60   29   30 am   BACKBONE|DICT|INTERRES
    61   29   99 1    
    62   30   31 2    
    63   30   32 1    
    64   32   33 1    
    65   32   34 1    
    66   32  100 1    
    67   33  101 1    
    68   33  102 1    
    69   33  103 1    
    70   34   35 am   BACKBONE|DICT|INTERRES
    71   34  104 1    
    72   35   36 2    
    73   37   38 2    
    74   37   39 am   BACKBONE|DICT|INTERRES
    75   39   40 1    
    76   39  105 1    
    77   40   41 1    
    78   40   42 1    
    79   40  106 1    
    80   41  107 1    
    81   41  108 1    
    82   41  109 1    
    83   42   43 2    
    84   42   44 am   BACKBONE|DICT|INTERRES
    85   44   45 1    
    86   44  110 1    
    87   45   46 1    
    88   45   47 1    
    89   45  111 1    
    90   46  112 1    
    91   46  113 1    
    92   46  114 1    
    93   47   48 2    
    94   47   49 am   BACKBONE|DICT|INTERRES
    95   49   50 1    
    96   49  115 1    
    97   50   51 1    
    98   50   52 1    
    99   50  116 1    
   100   51  117 1    
   101   51  118 1    
   102   51  119 1    
   103   52   53 2    
   104   52   54 am   BACKBONE|DICT|INTERRES
   105   54   55 1    
   106   54  120 1    
   107   55   56 1    
   108   55   57 1    
   109   55  121 1    
   110   56  122 1    
   111   56  123 1    
   112   56  124 1    
   113   57   58 2    
   114   57   59 am   BACKBONE|DICT|INTERRES
   115   59   60 1    
   116   59  125 1    
   117   60   61 1    
   118   60   62 1    
   119   60  126 1    
   120   61  127 1    
   121   61  128 1    
   122   61  129 1    
   123   62   63 2    
   124   62   64 am   BACKBONE|DICT|INTERRES
   125   64   65 1    
   126   64  130 1    
   127   65   66 1    
   128   65   69 1    
   129   65  131 1    
   130   66   67 am   BACKBONE|DICT|INTERRES
   131   66   68 2    
   132   67  132 1    
   133   67  133 1    
   134   69   70 1    
   135   69  134 1    
   136   69  135 1    
   137   70   71 1    
   138   71  136 1    
   139   71  137 1    
@<TRIPOS>SUBSTRUCTURE
     1 UNK         1 GROUP             0       ****    0 ROOT    
