@<TRIPOS>MOLECULE
3R137
137   139    1
SMALL
USER_CHARGES


@<TRIPOS>ATOM
      1 CA         25.0490   -4.3136   -7.6243 C.3       0 UNK        -0.2020 
      2 C          25.2030   -4.9574   -6.2546 C.2       0 UNK         0.4855 
      3 O          24.2048   -5.2966   -5.6179 O.2       0 UNK        -0.5197 
      4 N          26.4484   -5.1414   -5.8013 N.am      1 UNK        -0.4892 
      5 CA         26.7954   -5.5853   -4.4487 C.3       1 UNK         0.0835 
      6 C6         28.2715   -6.0582   -4.3505 C.3       12 UNK        -0.0855 
      7 S7         29.4953   -4.9743   -5.1827 S.3       12 UNK        -0.2931 
      8 C8         30.6126   -4.4760   -3.8333 C.3       12 UNK         0.0378 
      9 C9         30.4823   -2.9956   -3.5043 C.ar      12 UNK        -0.0802 
     10 C10        31.2867   -2.0571   -4.1591 C.ar      12 UNK        -0.0944 
     11 C11        31.2051   -0.7005   -3.8327 C.ar      12 UNK        -0.0787 
     12 C12        30.3128   -0.2863   -2.8394 C.ar      12 UNK        -0.0862 
     13 C13        29.4957   -1.2113   -2.1808 C.ar      12 UNK        -0.0733 
     14 C14        29.5873   -2.5652   -2.5200 C.ar      12 UNK        -0.0832 
     15 C15        28.5552   -0.7634   -1.0667 C.3       12 UNK         0.0240 
     16 S16        26.9512   -0.1546   -1.6863 S.3       12 UNK        -0.2522 
     17 C17        27.3910    1.5131   -2.2843 C.3       12 UNK        -0.0967 
     18 CA         27.3221    1.5950   -3.8298 C.3       5 UNK         0.0660 
     19 N          25.9237    1.5245   -4.2884 N.am      5 UNK        -0.4015 
     20 C          25.4661    1.4610   -5.5474 C.2       4 UNK         0.4946 
     21 O          26.1877    1.5790   -6.5388 O.2       4 UNK        -0.5353 
     22 CA         23.9444    1.2618   -5.7131 C.3       4 UNK         0.0277 
     23 CB         23.5514    0.8609   -7.1520 C.3       4 UNK        -0.1981 
     24 N          23.3814    0.3258   -4.7261 N.am      4 UNK        -0.4209 
     25 C          23.7158   -0.9645   -4.5765 C.2       3 UNK         0.4942 
     26 O          24.4892   -1.5703   -5.3193 O.2       3 UNK        -0.5208 
     27 CA         23.0850   -1.7084   -3.3960 C.3       3 UNK         0.0250 
     28 CB         21.8868   -2.5595   -3.8547 C.3       3 UNK        -0.1990 
     29 N          24.1258   -2.5521   -2.8234 N.am      3 UNK        -0.4232 
     30 C          24.1449   -3.1120   -1.6112 C.2       2 UNK         0.4993 
     31 O          23.2177   -3.0110   -0.8051 O.2       2 UNK        -0.5286 
     32 CA         25.4100   -3.9223   -1.2390 C.3       2 UNK         0.0209 
     33 CB         25.2474   -4.7081    0.0760 C.3       2 UNK        -0.1931 
     34 N          25.8410   -4.8500   -2.2952 N.am      2 UNK        -0.4546 
     35 C          26.4638   -4.4831   -3.4231 C.2       1 UNK         0.5154 
     36 O          26.7533   -3.3134   -3.6683 O.2       1 UNK        -0.5181 
     37 C          28.1595    2.7818   -4.3661 C.2       5 UNK         0.5014 
     38 O          29.3590    2.8343   -4.0940 O.2       5 UNK        -0.5248 
     39 N          27.5499    3.6963   -5.1298 N.am      6 UNK        -0.4434 
     40 CA         28.2468    4.7032   -5.9272 C.3       6 UNK         0.0363 
     41 CB         27.2437    5.7843   -6.3612 C.3       6 UNK        -0.1936 
     42 C          28.9577    4.1057   -7.1586 C.2       6 UNK         0.5081 
     43 O          29.9307    4.7039   -7.6177 O.2       6 UNK        -0.5248 
     44 N          28.4662    2.9715   -7.6861 N.am      7 UNK        -0.4718 
     45 CA         28.9982    2.3347   -8.8978 C.3       7 UNK         0.0273 
     46 CB         28.3902    3.0088  -10.1444 C.3       7 UNK        -0.1935 
     47 C          28.8187    0.8046   -8.9342 C.2       7 UNK         0.5018 
     48 O          29.0292    0.2124   -9.9946 O.2       7 UNK        -0.5186 
     49 N          28.4501    0.1868   -7.8012 N.am      8 UNK        -0.4240 
     50 CA         28.0958   -1.2316   -7.6327 C.3       8 UNK         0.0235 
     51 CB         27.9146   -1.5303   -6.1395 C.3       8 UNK        -0.2000 
     52 C          29.0689   -2.2526   -8.2471 C.2       8 UNK         0.4941 
     53 O          28.6169   -3.2488   -8.8135 O.2       8 UNK        -0.5273 
     54 N          30.3719   -1.9702   -8.1531 N.am      9 UNK        -0.4262 
     55 CA         31.4392   -2.6993   -8.8352 C.3       9 UNK         0.0264 
     56 CB         32.1355   -3.6534   -7.8469 C.3       9 UNK        -0.1955 
     57 C          32.3957   -1.6786   -9.4644 C.2       9 UNK         0.5031 
     58 O          33.6035   -1.7373   -9.2255 O.2       9 UNK        -0.5390 
     59 N          31.8260   -0.7024  -10.1892 N.am      10 UNK        -0.4204 
     60 CA         32.4470    0.5037  -10.7604 C.3       10 UNK         0.0237 
     61 CB         33.5956    0.1701  -11.7329 C.3       10 UNK        -0.1985 
     62 C          32.8814    1.5259   -9.6942 C.2       10 UNK         0.4970 
     63 O          32.5930    2.7112   -9.8538 O.2       10 UNK        -0.4914 
     64 N          33.5194    1.0435   -8.6210 N.am      11 UNK        -0.4285 
     65 CA         33.8465    1.7645   -7.3800 C.3       11 UNK         0.1007 
     66 C          34.8672    2.9331   -7.5394 C.2       11 UNK         0.5703 
     67 N          35.6244    3.0039   -8.6279 N.am      11 UNK        -0.7361 
     68 O          35.0088    3.7679   -6.6486 O.2       11 UNK        -0.4986 
     69 C69        32.5752    2.1687   -6.5769 C.3       12 UNK        -0.0947 
     70 S70        31.4929    0.7506   -6.1782 S.3       12 UNK        -0.2240 
     71 C71        32.1050    0.3151   -4.5222 C.3       12 UNK         0.0194 
     72 H72        26.0130   -4.1370   -8.1016 H         1 UNK         0.0906 
     73 H73        24.4568   -4.9525   -8.2787 H         1 UNK         0.0906 
     74 H74        24.5397   -3.3548   -7.5274 H         1 UNK         0.0906 
     75 H75        27.2360   -4.8203   -6.3479 H         1 UNK         0.3140 
     76 H76        26.1619   -6.4451   -4.2195 H         1 UNK         0.1085 
     77 H77        28.5515   -6.2307   -3.3101 H         1 UNK         0.0836 
     78 H78        28.3529   -7.0361   -4.8273 H         1 UNK         0.0836 
     79 H79        30.4423   -5.0764   -2.9393 H         1 UNK         0.0731 
     80 H80        31.6369   -4.6919   -4.1409 H         1 UNK         0.0731 
     81 H81        31.9841   -2.3826   -4.9173 H         1 UNK         0.1312 
     82 H82        30.2667    0.7600   -2.5749 H         1 UNK         0.1406 
     83 H83        28.9630   -3.2877   -2.0133 H         1 UNK         0.1631 
     84 H84        29.0331    0.0049   -0.4571 H         1 UNK         0.0717 
     85 H85        28.3632   -1.5982   -0.3911 H         1 UNK         0.0717 
     86 H86        26.7116    2.2381   -1.8324 H         1 UNK         0.0934 
     87 H87        28.3783    1.7757   -1.9031 H         1 UNK         0.0934 
     88 H88        27.8207    0.7109   -4.2304 H         1 UNK         0.0739 
     89 H89        25.2454    1.4190   -3.5488 H         1 UNK         0.3093 
     90 H90        23.4900    2.2326   -5.5099 H         1 UNK         0.0818 
     91 H91        23.8465    1.6313   -7.8656 H         1 UNK         0.0819 
     92 H92        24.0356   -0.0658   -7.4618 H         1 UNK         0.0819 
     93 H93        22.4743    0.7261   -7.2478 H         1 UNK         0.0819 
     94 H94        22.7165    0.7247   -4.0769 H         1 UNK         0.3041 
     95 H95        22.7606   -0.9881   -2.6422 H         1 UNK         0.0784 
     96 H96        21.1193   -1.9375   -4.3169 H         1 UNK         0.0793 
     97 H97        22.1880   -3.3091   -4.5882 H         1 UNK         0.0793 
     98 H98        21.4219   -3.0796   -3.0171 H         1 UNK         0.0793 
     99 H99        24.9506   -2.6574   -3.4145 H         1 UNK         0.3024 
    100 H100       26.2045   -3.1881   -1.0846 H         1 UNK         0.1171 
    101 H101       26.1687   -5.2240    0.3472 H         1 UNK         0.0786 
    102 H102       24.9991   -4.0416    0.9032 H         1 UNK         0.0786 
    103 H103       24.4526   -5.4516    0.0053 H         1 UNK         0.0786 
    104 H104       25.5919   -5.8203   -2.1661 H         1 UNK         0.2977 
    105 H105       26.5694    3.5618   -5.3286 H         1 UNK         0.3127 
    106 H106       29.0082    5.1742   -5.3014 H         1 UNK         0.0770 
    107 H107       26.4521    5.3730   -6.9889 H         1 UNK         0.0814 
    108 H108       27.7406    6.5673   -6.9357 H         1 UNK         0.0814 
    109 H109       26.7774    6.2630   -5.4999 H         1 UNK         0.0814 
    110 H110       27.6323    2.5516   -7.2786 H         1 UNK         0.2983 
    111 H111       30.0778    2.4923   -8.9210 H         1 UNK         0.0947 
    112 H112       28.8057    2.5933  -11.0633 H         1 UNK         0.0806 
    113 H113       28.5967    4.0790  -10.1599 H         1 UNK         0.0806 
    114 H114       27.3087    2.8745  -10.1822 H         1 UNK         0.0806 
    115 H115       28.2722    0.7698   -6.9965 H         1 UNK         0.3000 
    116 H116       27.1313   -1.3737   -8.1238 H         1 UNK         0.0850 
    117 H117       28.8015   -1.2762   -5.5590 H         1 UNK         0.0810 
    118 H118       27.0683   -0.9900   -5.7208 H         1 UNK         0.0810 
    119 H119       27.7169   -2.5889   -5.9766 H         1 UNK         0.0810 
    120 H120       30.6456   -1.1291   -7.6605 H         1 UNK         0.3040 
    121 H121       31.0302   -3.2911   -9.6568 H         1 UNK         0.0766 
    122 H122       32.6127   -3.1105   -7.0314 H         1 UNK         0.0812 
    123 H123       32.9093   -4.2366   -8.3475 H         1 UNK         0.0812 
    124 H124       31.4277   -4.3596   -7.4140 H         1 UNK         0.0812 
    125 H125       30.8106   -0.7084  -10.2538 H         1 UNK         0.3205 
    126 H126       31.6578    0.9819  -11.3434 H         1 UNK         0.0754 
    127 H127       33.9516    1.0716  -12.2332 H         1 UNK         0.0769 
    128 H128       33.2686   -0.5228  -12.5081 H         1 UNK         0.0769 
    129 H129       34.4518   -0.2746  -11.2252 H         1 UNK         0.0769 
    130 H130       33.7346    0.0500   -8.6262 H         1 UNK         0.2981 
    131 H131       34.3812    1.0360   -6.7701 H         1 UNK         0.0541 
    132 H132       35.5242    2.3224   -9.3627 H         1 UNK         0.3459 
    133 H133       36.2912    3.7540   -8.7187 H         1 UNK         0.3459 
    134 H134       31.9876    2.8933   -7.1417 H         1 UNK         0.0612 
    135 H135       32.8445    2.6701   -5.6462 H         1 UNK         0.0612 
    136 H136       33.1171   -0.0832   -4.6066 H         1 UNK         0.0624 
    137 H137       32.1767    1.2194   -3.9158 H         1 UNK         0.0624 
@<TRIPOS>BOND
     1    1    2 1    
     2    1   72 1    
     3    1   73 1    
     4    1   74 1    
     5    2    3 2    
     6    2    4 am   BACKBONE|DICT|INTERRES
     7    4    5 1    
     8    4   75 1    
     9    5    6 1    
    10    5   35 1    
    11    5   76 1    
    12    6    7 1    
    13    6   77 1    
    14    6   78 1    
    15    7    8 1    
    16    8    9 1    
    17    8   79 1    
    18    8   80 1    
    19    9   10 ar   
    20    9   14 ar   
    21   10   11 ar   
    22   10   81 1    
    23   11   12 ar   
    24   11   71 1    
    25   12   13 ar   
    26   12   82 1    
    27   13   14 ar   
    28   13   15 1    
    29   14   83 1    
    30   15   16 1    
    31   15   84 1    
    32   15   85 1    
    33   16   17 1    
    34   17   18 1    
    35   17   86 1    
    36   17   87 1    
    37   18   19 1    
    38   18   37 1    
    39   18   88 1    
    40   19   20 am   BACKBONE|DICT|INTERRES
    41   19   89 1    
    42   20   21 2    
    43   20   22 1    
    44   22   23 1    
    45   22   24 1    
    46   22   90 1    
    47   23   91 1    
    48   23   92 1    
    49   23   93 1    
    50   24   25 am   BACKBONE|DICT|INTERRES
    51   24   94 1    
    52   25   26 2    
    53   25   27 1    
    54   27   28 1    
    55   27   29 1    
    56   27   95 1    
    57   28   96 1    
    58   28   97 1    
    59   28   98 1    
    60   29   30 am   BACKBONE|DICT|INTERRES
    61   29   99 1    
    62   30   31 2    
    63   30   32 1    
    64   32   33 1    
    65   32   34 1    
    66   32  100 1    
    67   33  101 1    
    68   33  102 1    
    69   33  103 1    
    70   34   35 am   BACKBONE|DICT|INTERRES
    71   34  104 1    
    72   35   36 2    
    73   37   38 2    
    74   37   39 am   BACKBONE|DICT|INTERRES
    75   39   40 1    
    76   39  105 1    
    77   40   41 1    
    78   40   42 1    
    79   40  106 1    
    80   41  107 1    
    81   41  108 1    
    82   41  109 1    
    83   42   43 2    
    84   42   44 am   BACKBONE|DICT|INTERRES
    85   44   45 1    
    86   44  110 1    
    87   45   46 1    
    88   45   47 1    
    89   45  111 1    
    90   46  112 1    
    91   46  113 1    
    92   46  114 1    
    93   47   48 2    
    94   47   49 am   BACKBONE|DICT|INTERRES
    95   49   50 1    
    96   49  115 1    
    97   50   51 1    
    98   50   52 1    
    99   50  116 1    
   100   51  117 1    
   101   51  118 1    
   102   51  119 1    
   103   52   53 2    
   104   52   54 am   BACKBONE|DICT|INTERRES
   105   54   55 1    
   106   54  120 1    
   107   55   56 1    
   108   55   57 1    
   109   55  121 1    
   110   56  122 1    
   111   56  123 1    
   112   56  124 1    
   113   57   58 2    
   114   57   59 am   BACKBONE|DICT|INTERRES
   115   59   60 1    
   116   59  125 1    
   117   60   61 1    
   118   60   62 1    
   119   60  126 1    
   120   61  127 1    
   121   61  128 1    
   122   61  129 1    
   123   62   63 2    
   124   62   64 am   BACKBONE|DICT|INTERRES
   125   64   65 1    
   126   64  130 1    
   127   65   66 1    
   128   65   69 1    
   129   65  131 1    
   130   66   67 am   BACKBONE|DICT|INTERRES
   131   66   68 2    
   132   67  132 1    
   133   67  133 1    
   134   69   70 1    
   135   69  134 1    
   136   69  135 1    
   137   70   71 1    
   138   71  136 1    
   139   71  137 1    
@<TRIPOS>SUBSTRUCTURE
     1 UNK         1 GROUP             0       ****    0 ROOT    
