@<TRIPOS>MOLECULE
3R137
137   139    1
SMALL
USER_CHARGES


@<TRIPOS>ATOM
      1 CA         30.6044    0.9875   -2.5710 C.3       0 UNK        -0.2020 
      2 C          29.8343   -0.3029   -2.3332 C.2       0 UNK         0.4855 
      3 O          29.3172   -0.8898   -3.2820 O.2       0 UNK        -0.5197 
      4 N          29.7505   -0.7488   -1.0733 N.am      1 UNK        -0.4892 
      5 CA         29.0252   -1.9518   -0.6580 C.3       1 UNK         0.0835 
      6 C6         29.6046   -2.5207    0.6635 C.3       12 UNK        -0.0855 
      7 S7         29.0337   -4.2217    1.0056 S.3       12 UNK        -0.2931 
      8 C8         30.4480   -5.2171    0.4360 C.3       12 UNK         0.0378 
      9 C9         30.6581   -5.1056   -1.0675 C.ar      12 UNK        -0.0802 
     10 C10        31.7702   -4.4268   -1.5769 C.ar      12 UNK        -0.0944 
     11 C11        31.9814   -4.3438   -2.9566 C.ar      12 UNK        -0.0787 
     12 C12        31.0686   -4.9486   -3.8255 C.ar      12 UNK        -0.0862 
     13 C13        29.9326   -5.5957   -3.3317 C.ar      12 UNK        -0.0733 
     14 C14        29.7401   -5.6845   -1.9502 C.ar      12 UNK        -0.0832 
     15 C15        28.9124   -6.1923   -4.2928 C.3       12 UNK         0.0240 
     16 S16        27.4282   -5.1439   -4.4473 S.3       12 UNK        -0.2522 
     17 C17        28.1033   -3.6216   -5.1963 C.3       12 UNK        -0.0967 
     18 CA         27.3900   -3.2083   -6.5075 C.3       5 UNK         0.0660 
     19 N          25.9548   -2.9962   -6.3190 N.am      5 UNK        -0.4015 
     20 C          25.0184   -3.2100   -7.2520 C.2       4 UNK         0.4946 
     21 O          25.2557   -3.6682   -8.3705 O.2       4 UNK        -0.5353 
     22 CA         23.5633   -2.8613   -6.8823 C.3       4 UNK         0.0277 
     23 CB         22.8276   -4.1116   -6.3731 C.3       4 UNK        -0.1981 
     24 N          23.4485   -1.7952   -5.8829 N.am      4 UNK        -0.4209 
     25 C          23.7878   -0.5154   -6.0934 C.2       3 UNK         0.4942 
     26 O          24.1886   -0.0836   -7.1732 O.2       3 UNK        -0.5208 
     27 CA         23.7237    0.4318   -4.8806 C.3       3 UNK         0.0250 
     28 CB         22.3292    1.0680   -4.7688 C.3       3 UNK        -0.1990 
     29 N          24.0830   -0.1953   -3.6001 N.am      3 UNK        -0.4232 
     30 C          25.2420   -0.8215   -3.3543 C.2       2 UNK         0.4993 
     31 O          26.1166   -0.9935   -4.2060 O.2       2 UNK        -0.5286 
     32 CA         25.4389   -1.4015   -1.9521 C.3       2 UNK         0.0209 
     33 CB         24.6594   -2.7193   -1.7905 C.3       2 UNK        -0.1931 
     34 N          26.8632   -1.6537   -1.7595 N.am      2 UNK        -0.4546 
     35 C          27.5101   -1.6586   -0.5921 C.2       1 UNK         0.5154 
     36 O          26.9669   -1.4100    0.4869 O.2       1 UNK        -0.5181 
     37 C          28.0369   -1.9335   -7.0801 C.2       5 UNK         0.5014 
     38 O          28.8363   -2.0229   -8.0127 O.2       5 UNK        -0.5248 
     39 N          27.6958   -0.7772   -6.4937 N.am      6 UNK        -0.4434 
     40 CA         28.2741    0.5262   -6.8099 C.3       6 UNK         0.0363 
     41 CB         27.9381    1.5149   -5.6828 C.3       6 UNK        -0.1936 
     42 C          27.8277    1.1049   -8.1594 C.2       6 UNK         0.5081 
     43 O          28.6169    1.8154   -8.7879 O.2       6 UNK        -0.5248 
     44 N          26.5748    0.8381   -8.5609 N.am      7 UNK        -0.4718 
     45 CA         25.8936    1.3992   -9.7334 C.3       7 UNK         0.0273 
     46 CB         26.4678    0.7913  -11.0341 C.3       7 UNK        -0.1935 
     47 C          25.9143    2.9400   -9.6833 C.2       7 UNK         0.5018 
     48 O          25.2435    3.5217   -8.8289 O.2       7 UNK        -0.5186 
     49 N          26.7222    3.5605  -10.5493 N.am      8 UNK        -0.4240 
     50 CA         27.0783    4.9784  -10.5040 C.3       8 UNK         0.0235 
     51 CB         26.2389    5.7497  -11.5412 C.3       8 UNK        -0.2000 
     52 C          28.5947    5.1656  -10.7073 C.2       8 UNK         0.4941 
     53 O          29.0077    6.2203  -11.1928 O.2       8 UNK        -0.5273 
     54 N          29.3967    4.1440  -10.3664 N.am      9 UNK        -0.4262 
     55 CA         30.8427    4.1018  -10.6207 C.3       9 UNK         0.0264 
     56 CB         31.1115    3.1103  -11.7667 C.3       9 UNK        -0.1955 
     57 C          31.6839    3.7266   -9.3878 C.2       9 UNK         0.5031 
     58 O          32.8856    3.9985   -9.4026 O.2       9 UNK        -0.5390 
     59 N          31.0585    3.1115   -8.3713 N.am      10 UNK        -0.4204 
     60 CA         31.6436    2.4347   -7.2039 C.3       10 UNK         0.0237 
     61 CB         32.6950    3.2895   -6.4659 C.3       10 UNK        -0.1985 
     62 C          32.1824    1.0414   -7.5770 C.2       10 UNK         0.4970 
     63 O          32.4887    0.7776   -8.7419 O.2       10 UNK        -0.4914 
     64 N          32.2563    0.1557   -6.5764 N.am      11 UNK        -0.4285 
     65 CA         32.6289   -1.2565   -6.7555 C.3       11 UNK         0.1007 
     66 C          34.1405   -1.5303   -7.0181 C.2       11 UNK         0.5703 
     67 N          35.0265   -0.5484   -6.8979 N.am      11 UNK        -0.7361 
     68 O          34.5121   -2.6536   -7.3497 O.2       11 UNK        -0.4986 
     69 C69        32.0376   -2.1451   -5.6313 C.3       12 UNK        -0.0947 
     70 S70        32.7978   -1.8980   -3.9869 S.3       12 UNK        -0.2240 
     71 C71        33.1986   -3.6088   -3.5040 C.3       12 UNK         0.0194 
     72 H72        31.0839    1.3493   -1.6618 H         1 UNK         0.0906 
     73 H73        31.3793    0.8278   -3.3194 H         1 UNK         0.0906 
     74 H74        29.9333    1.7648   -2.9342 H         1 UNK         0.0906 
     75 H75        30.1664   -0.2090   -0.3275 H         1 UNK         0.3140 
     76 H76        29.1734   -2.7106   -1.4308 H         1 UNK         0.1085 
     77 H77        30.6948   -2.5262    0.6192 H         1 UNK         0.0836 
     78 H78        29.3502   -1.8840    1.5129 H         1 UNK         0.0836 
     79 H79        31.3448   -4.9180    0.9810 H         1 UNK         0.0731 
     80 H80        30.2700   -6.2619    0.6948 H         1 UNK         0.0731 
     81 H81        32.4757   -3.9653   -0.8995 H         1 UNK         0.1312 
     82 H82        31.2304   -4.9039   -4.8920 H         1 UNK         0.1406 
     83 H83        28.8671   -6.1914   -1.5611 H         1 UNK         0.1631 
     84 H84        28.6118   -7.1787   -3.9367 H         1 UNK         0.0717 
     85 H85        29.3502   -6.3454   -5.2805 H         1 UNK         0.0717 
     86 H86        28.0362   -2.8320   -4.4478 H         1 UNK         0.0934 
     87 H87        29.1672   -3.7533   -5.3911 H         1 UNK         0.0934 
     88 H88        27.5395   -4.0104   -7.2338 H         1 UNK         0.0739 
     89 H89        25.6886   -2.5623   -5.4438 H         1 UNK         0.3093 
     90 H90        23.0683   -2.5200   -7.7943 H         1 UNK         0.0818 
     91 H91        21.7743   -3.9042   -6.1835 H         1 UNK         0.0819 
     92 H92        22.8697   -4.9153   -7.1097 H         1 UNK         0.0819 
     93 H93        23.2682   -4.4928   -5.4508 H         1 UNK         0.0819 
     94 H94        23.1238   -2.0600   -4.9644 H         1 UNK         0.3041 
     95 H95        24.4460    1.2305   -5.0612 H         1 UNK         0.0784 
     96 H96        22.0486    1.5587   -5.7021 H         1 UNK         0.0793 
     97 H97        21.5616    0.3253   -4.5474 H         1 UNK         0.0793 
     98 H98        22.2997    1.8265   -3.9864 H         1 UNK         0.0793 
     99 H99        23.4071   -0.1115   -2.8539 H         1 UNK         0.3024 
    100 H100       25.0939   -0.6670   -1.2207 H         1 UNK         0.1171 
    101 H101       23.5885   -2.5672   -1.9299 H         1 UNK         0.0786 
    102 H102       24.7965   -3.1403   -0.7942 H         1 UNK         0.0786 
    103 H103       24.9828   -3.4686   -2.5149 H         1 UNK         0.0786 
    104 H104       27.4050   -1.7033   -2.6185 H         1 UNK         0.2977 
    105 H105       27.0716   -0.8095   -5.6875 H         1 UNK         0.3127 
    106 H106       29.3561    0.3992   -6.8464 H         1 UNK         0.0770 
    107 H107       26.8621    1.6665   -5.5906 H         1 UNK         0.0814 
    108 H108       28.3903    2.4906   -5.8640 H         1 UNK         0.0814 
    109 H109       28.3044    1.1585   -4.7212 H         1 UNK         0.0814 
    110 H110       25.9711    0.3079   -7.9386 H         1 UNK         0.2983 
    111 H111       24.8456    1.1035   -9.6604 H         1 UNK         0.0947 
    112 H112       25.9572    1.1865  -11.9134 H         1 UNK         0.0806 
    113 H113       26.3295   -0.2899  -11.0467 H         1 UNK         0.0806 
    114 H114       27.5352    0.9814  -11.1518 H         1 UNK         0.0806 
    115 H115       27.2313    2.9957  -11.2151 H         1 UNK         0.3000 
    116 H116       26.8583    5.3839   -9.5140 H         1 UNK         0.0850 
    117 H117       26.4378    6.8211  -11.4924 H         1 UNK         0.0810 
    118 H118       25.1716    5.6137  -11.3660 H         1 UNK         0.0810 
    119 H119       26.4566    5.4210  -12.5580 H         1 UNK         0.0810 
    120 H120       28.9852    3.3228   -9.9297 H         1 UNK         0.3040 
    121 H121       31.1977    5.0849  -10.9369 H         1 UNK         0.0766 
    122 H122       32.1763    3.0574  -11.9982 H         1 UNK         0.0812 
    123 H123       30.5967    3.4098  -12.6796 H         1 UNK         0.0812 
    124 H124       30.7834    2.1021  -11.5095 H         1 UNK         0.0812 
    125 H125       30.0857    2.8579   -8.5264 H         1 UNK         0.3205 
    126 H126       30.8109    2.2863   -6.5162 H         1 UNK         0.0754 
    127 H127       32.9373    2.8555   -5.4952 H         1 UNK         0.0769 
    128 H128       32.3297    4.3005   -6.2852 H         1 UNK         0.0769 
    129 H129       33.6293    3.3632   -7.0231 H         1 UNK         0.0769 
    130 H130       32.0243    0.4328   -5.6348 H         1 UNK         0.2981 
    131 H131       32.1325   -1.5835   -7.6718 H         1 UNK         0.0541 
    132 H132       34.7303    0.3761   -6.6316 H         1 UNK         0.3459 
    133 H133       36.0001   -0.7373   -7.0757 H         1 UNK         0.3459 
    134 H134       32.1344   -3.1885   -5.9283 H         1 UNK         0.0612 
    135 H135       30.9656   -1.9640   -5.5367 H         1 UNK         0.0612 
    136 H136       33.6214   -4.1483   -4.3529 H         1 UNK         0.0624 
    137 H137       33.9839   -3.5771   -2.7474 H         1 UNK         0.0624 
@<TRIPOS>BOND
     1    1    2 1    
     2    1   72 1    
     3    1   73 1    
     4    1   74 1    
     5    2    3 2    
     6    2    4 am   BACKBONE|DICT|INTERRES
     7    4    5 1    
     8    4   75 1    
     9    5    6 1    
    10    5   35 1    
    11    5   76 1    
    12    6    7 1    
    13    6   77 1    
    14    6   78 1    
    15    7    8 1    
    16    8    9 1    
    17    8   79 1    
    18    8   80 1    
    19    9   10 ar   
    20    9   14 ar   
    21   10   11 ar   
    22   10   81 1    
    23   11   12 ar   
    24   11   71 1    
    25   12   13 ar   
    26   12   82 1    
    27   13   14 ar   
    28   13   15 1    
    29   14   83 1    
    30   15   16 1    
    31   15   84 1    
    32   15   85 1    
    33   16   17 1    
    34   17   18 1    
    35   17   86 1    
    36   17   87 1    
    37   18   19 1    
    38   18   37 1    
    39   18   88 1    
    40   19   20 am   BACKBONE|DICT|INTERRES
    41   19   89 1    
    42   20   21 2    
    43   20   22 1    
    44   22   23 1    
    45   22   24 1    
    46   22   90 1    
    47   23   91 1    
    48   23   92 1    
    49   23   93 1    
    50   24   25 am   BACKBONE|DICT|INTERRES
    51   24   94 1    
    52   25   26 2    
    53   25   27 1    
    54   27   28 1    
    55   27   29 1    
    56   27   95 1    
    57   28   96 1    
    58   28   97 1    
    59   28   98 1    
    60   29   30 am   BACKBONE|DICT|INTERRES
    61   29   99 1    
    62   30   31 2    
    63   30   32 1    
    64   32   33 1    
    65   32   34 1    
    66   32  100 1    
    67   33  101 1    
    68   33  102 1    
    69   33  103 1    
    70   34   35 am   BACKBONE|DICT|INTERRES
    71   34  104 1    
    72   35   36 2    
    73   37   38 2    
    74   37   39 am   BACKBONE|DICT|INTERRES
    75   39   40 1    
    76   39  105 1    
    77   40   41 1    
    78   40   42 1    
    79   40  106 1    
    80   41  107 1    
    81   41  108 1    
    82   41  109 1    
    83   42   43 2    
    84   42   44 am   BACKBONE|DICT|INTERRES
    85   44   45 1    
    86   44  110 1    
    87   45   46 1    
    88   45   47 1    
    89   45  111 1    
    90   46  112 1    
    91   46  113 1    
    92   46  114 1    
    93   47   48 2    
    94   47   49 am   BACKBONE|DICT|INTERRES
    95   49   50 1    
    96   49  115 1    
    97   50   51 1    
    98   50   52 1    
    99   50  116 1    
   100   51  117 1    
   101   51  118 1    
   102   51  119 1    
   103   52   53 2    
   104   52   54 am   BACKBONE|DICT|INTERRES
   105   54   55 1    
   106   54  120 1    
   107   55   56 1    
   108   55   57 1    
   109   55  121 1    
   110   56  122 1    
   111   56  123 1    
   112   56  124 1    
   113   57   58 2    
   114   57   59 am   BACKBONE|DICT|INTERRES
   115   59   60 1    
   116   59  125 1    
   117   60   61 1    
   118   60   62 1    
   119   60  126 1    
   120   61  127 1    
   121   61  128 1    
   122   61  129 1    
   123   62   63 2    
   124   62   64 am   BACKBONE|DICT|INTERRES
   125   64   65 1    
   126   64  130 1    
   127   65   66 1    
   128   65   69 1    
   129   65  131 1    
   130   66   67 am   BACKBONE|DICT|INTERRES
   131   66   68 2    
   132   67  132 1    
   133   67  133 1    
   134   69   70 1    
   135   69  134 1    
   136   69  135 1    
   137   70   71 1    
   138   71  136 1    
   139   71  137 1    
@<TRIPOS>SUBSTRUCTURE
     1 UNK         1 GROUP             0       ****    0 ROOT    
