@<TRIPOS>MOLECULE
3R137
137   139    1
SMALL
USER_CHARGES


@<TRIPOS>ATOM
      1 CA         24.1861   -7.0383   -0.4424 C.3       0 UNK        -0.2020 
      2 C          25.0229   -5.8922    0.1059 C.2       0 UNK         0.4855 
      3 O          24.7626   -5.4195    1.2125 O.2       0 UNK        -0.5197 
      4 N          26.0265   -5.4416   -0.6595 N.am      1 UNK        -0.4892 
      5 CA         26.9216   -4.3317   -0.2982 C.3       1 UNK         0.0835 
      6 C6         28.2177   -4.3630   -1.1488 C.3       12 UNK        -0.0855 
      7 S7         29.6792   -3.7762   -0.2273 S.3       12 UNK        -0.2931 
      8 C8         31.0350   -4.4085   -1.2682 C.3       12 UNK         0.0378 
      9 C9         31.0453   -3.7313   -2.6299 C.ar      12 UNK        -0.0802 
     10 C10        31.6555   -2.4836   -2.7893 C.ar      12 UNK        -0.0944 
     11 C11        31.6278   -1.8256   -4.0228 C.ar      12 UNK        -0.0787 
     12 C12        30.9642   -2.4316   -5.0972 C.ar      12 UNK        -0.0862 
     13 C13        30.3587   -3.6841   -4.9554 C.ar      12 UNK        -0.0733 
     14 C14        30.4194   -4.3376   -3.7225 C.ar      12 UNK        -0.0832 
     15 C15        29.6435   -4.3271   -6.1380 C.3       12 UNK         0.0240 
     16 S16        27.8924   -4.7333   -5.8105 S.3       12 UNK        -0.2522 
     17 C17        27.1821   -3.1667   -5.2006 C.3       12 UNK        -0.0967 
     18 CA         26.8114   -2.1667   -6.3297 C.3       5 UNK         0.0660 
     19 N          25.5898   -1.4163   -6.0262 N.am      5 UNK        -0.4015 
     20 C          24.9221   -0.6553   -6.9086 C.2       4 UNK         0.4946 
     21 O          25.2268   -0.5590   -8.0968 O.2       4 UNK        -0.5353 
     22 CA         23.7429    0.1783   -6.3735 C.3       4 UNK         0.0277 
     23 CB         22.4389   -0.6327   -6.4344 C.3       4 UNK        -0.1981 
     24 N          23.9543    0.6630   -5.0077 N.am      4 UNK        -0.4209 
     25 C          24.9433    1.4893   -4.6365 C.2       3 UNK         0.4942 
     26 O          25.7175    2.0207   -5.4309 O.2       3 UNK        -0.5208 
     27 CA         25.1446    1.7165   -3.1262 C.3       3 UNK         0.0250 
     28 CB         24.4799    3.0313   -2.6897 C.3       3 UNK        -0.1990 
     29 N          24.6604    0.6180   -2.2782 N.am      3 UNK        -0.4232 
     30 C          25.0853   -0.6525   -2.3396 C.2       2 UNK         0.4993 
     31 O          25.9291   -1.0539   -3.1459 O.2       2 UNK        -0.5286 
     32 CA         24.3729   -1.6485   -1.4118 C.3       2 UNK         0.0209 
     33 CB         23.0169   -2.0560   -2.0137 C.3       2 UNK        -0.1931 
     34 N          25.1661   -2.8587   -1.1974 N.am      2 UNK        -0.4546 
     35 C          26.2197   -2.9543   -0.3743 C.2       1 UNK         0.5154 
     36 O          26.6189   -2.0226    0.3266 O.2       1 UNK        -0.5181 
     37 C          27.9701   -1.1964   -6.6158 C.2       5 UNK         0.5014 
     38 O          28.6595   -1.3490   -7.6243 O.2       5 UNK        -0.5248 
     39 N          28.1331   -0.1936   -5.7386 N.am      6 UNK        -0.4434 
     40 CA         29.1414    0.8607   -5.8560 C.3       6 UNK         0.0363 
     41 CB         29.1118    1.7588   -4.6092 C.3       6 UNK        -0.1936 
     42 C          28.9930    1.6901   -7.1387 C.2       6 UNK         0.5081 
     43 O          29.9976    1.9678   -7.7933 O.2       6 UNK        -0.5248 
     44 N          27.7458    2.0284   -7.4918 N.am      7 UNK        -0.4718 
     45 CA         27.3847    2.7034   -8.7376 C.3       7 UNK         0.0273 
     46 CB         25.9073    3.1236   -8.6853 C.3       7 UNK        -0.1935 
     47 C          27.6659    1.8470   -9.9836 C.2       7 UNK         0.5018 
     48 O          28.2275    2.3659  -10.9483 O.2       7 UNK        -0.5186 
     49 N          27.2904    0.5591   -9.9406 N.am      8 UNK        -0.4240 
     50 CA         27.5031   -0.4022  -11.0274 C.3       8 UNK         0.0235 
     51 CB         26.7273   -1.6980  -10.7410 C.3       8 UNK        -0.2000 
     52 C          28.9878   -0.7065  -11.2832 C.2       8 UNK         0.4941 
     53 O          29.4081   -0.7300  -12.4407 O.2       8 UNK        -0.5273 
     54 N          29.7546   -0.9240  -10.2063 N.am      9 UNK        -0.4262 
     55 CA         31.1969   -1.1784  -10.2593 C.3       9 UNK         0.0264 
     56 CB         31.6372   -1.8284   -8.9405 C.3       9 UNK        -0.1955 
     57 C          32.0342    0.0850  -10.5252 C.2       9 UNK         0.5031 
     58 O          33.1827   -0.0463  -10.9507 O.2       9 UNK        -0.5390 
     59 N          31.4596    1.2661  -10.2518 N.am      10 UNK        -0.4204 
     60 CA         32.0807    2.5938  -10.2804 C.3       10 UNK         0.0237 
     61 CB         32.5073    2.9861  -11.7116 C.3       10 UNK        -0.1985 
     62 C          33.2138    2.7081   -9.2432 C.2       10 UNK         0.4970 
     63 O          34.3325    3.0969   -9.5866 O.2       10 UNK        -0.4914 
     64 N          32.8987    2.3441   -7.9927 N.am      11 UNK        -0.4285 
     65 CA         33.8057    2.4314   -6.8374 C.3       11 UNK         0.1007 
     66 C          34.2114    3.8956   -6.5095 C.2       11 UNK         0.5703 
     67 N          35.4406    4.1134   -6.0614 N.am      11 UNK        -0.7361 
     68 O          33.4121    4.8246   -6.6154 O.2       11 UNK        -0.4986 
     69 C69        33.2068    1.7491   -5.5804 C.3       12 UNK        -0.0947 
     70 S70        32.9555   -0.0439   -5.7810 S.3       12 UNK        -0.2240 
     71 C71        32.2629   -0.4395   -4.1380 C.3       12 UNK         0.0194 
     72 H72        23.1442   -6.7321   -0.5324 H         1 UNK         0.0906 
     73 H73        24.5300   -7.3631   -1.4242 H         1 UNK         0.0906 
     74 H74        24.2327   -7.8927    0.2323 H         1 UNK         0.0906 
     75 H75        26.1985   -5.8762   -1.5556 H         1 UNK         0.3140 
     76 H76        27.1946   -4.4819    0.7493 H         1 UNK         0.1085 
     77 H77        28.4338   -5.3858   -1.4620 H         1 UNK         0.0836 
     78 H78        28.1088   -3.7868   -2.0704 H         1 UNK         0.0836 
     79 H79        31.9845   -4.2304   -0.7611 H         1 UNK         0.0731 
     80 H80        30.9448   -5.4908   -1.3740 H         1 UNK         0.0731 
     81 H81        32.1337   -2.0141   -1.9402 H         1 UNK         0.1312 
     82 H82        30.9062   -1.9245   -6.0478 H         1 UNK         0.1406 
     83 H83        29.9475   -5.3040   -3.6077 H         1 UNK         0.1631 
     84 H84        29.6944   -3.6886   -7.0194 H         1 UNK         0.0717 
     85 H85        30.1678   -5.2455   -6.4046 H         1 UNK         0.0717 
     86 H86        26.2812   -3.4529   -4.6553 H         1 UNK         0.0934 
     87 H87        27.8309   -2.7232   -4.4422 H         1 UNK         0.0934 
     88 H88        26.6147   -2.7270   -7.2465 H         1 UNK         0.0739 
     89 H89        25.3341   -1.3732   -5.0458 H         1 UNK         0.3093 
     90 H90        23.6355    1.0502   -7.0221 H         1 UNK         0.0818 
     91 H91        21.5808   -0.0280   -6.1406 H         1 UNK         0.0819 
     92 H92        22.2495   -0.9885   -7.4483 H         1 UNK         0.0819 
     93 H93        22.4735   -1.5074   -5.7835 H         1 UNK         0.0819 
     94 H94        23.3501    0.2902   -4.2907 H         1 UNK         0.3041 
     95 H95        26.2197    1.8052   -2.9573 H         1 UNK         0.0784 
     96 H96        24.8425    3.8688   -3.2879 H         1 UNK         0.0793 
     97 H97        23.3958    2.9945   -2.8044 H         1 UNK         0.0793 
     98 H98        24.7012    3.2622   -1.6475 H         1 UNK         0.0793 
     99 H99        23.9496    0.8585   -1.6015 H         1 UNK         0.3024 
    100 H100       24.2052   -1.1665   -0.4456 H         1 UNK         0.1171 
    101 H101       23.1323   -2.5274   -2.9909 H         1 UNK         0.0786 
    102 H102       22.4912   -2.7572   -1.3649 H         1 UNK         0.0786 
    103 H103       22.3642   -1.1917   -2.1431 H         1 UNK         0.0786 
    104 H104       24.9190   -3.6690   -1.7451 H         1 UNK         0.2977 
    105 H105       27.5085   -0.1430   -4.9453 H         1 UNK         0.3127 
    106 H106       30.1115    0.3696   -5.9046 H         1 UNK         0.0770 
    107 H107       28.1774    2.3135   -4.5290 H         1 UNK         0.0814 
    108 H108       29.9175    2.4928   -4.6410 H         1 UNK         0.0814 
    109 H109       29.2354    1.1784   -3.6950 H         1 UNK         0.0814 
    110 H110       26.9882    1.8200   -6.8455 H         1 UNK         0.2983 
    111 H111       27.9941    3.6067   -8.8132 H         1 UNK         0.0947 
    112 H112       25.6211    3.6593   -9.5913 H         1 UNK         0.0806 
    113 H113       25.7137    3.7856   -7.8410 H         1 UNK         0.0806 
    114 H114       25.2454    2.2621   -8.5914 H         1 UNK         0.0806 
    115 H115       26.7950    0.2168   -9.1224 H         1 UNK         0.3000 
    116 H116       27.0971    0.0381  -11.9407 H         1 UNK         0.0850 
    117 H117       27.0470   -2.1626   -9.8075 H         1 UNK         0.0810 
    118 H118       26.8750   -2.4280  -11.5381 H         1 UNK         0.0810 
    119 H119       25.6560   -1.5095  -10.6696 H         1 UNK         0.0810 
    120 H120       29.3178   -0.9458   -9.2846 H         1 UNK         0.3040 
    121 H121       31.3953   -1.8826  -11.0701 H         1 UNK         0.0766 
    122 H122       31.4512   -1.1614   -8.0997 H         1 UNK         0.0812 
    123 H123       32.7039   -2.0563   -8.9478 H         1 UNK         0.0812 
    124 H124       31.1050   -2.7616   -8.7592 H         1 UNK         0.0812 
    125 H125       30.5315    1.2447   -9.8469 H         1 UNK         0.3205 
    126 H126       31.3069    3.2965   -9.9671 H         1 UNK         0.0754 
    127 H127       32.8599    4.0177  -11.7422 H         1 UNK         0.0769 
    128 H128       31.6718    2.9078  -12.4073 H         1 UNK         0.0769 
    129 H129       33.3155    2.3568  -12.0853 H         1 UNK         0.0769 
    130 H130       31.9376    2.0799   -7.7973 H         1 UNK         0.2981 
    131 H131       34.7150    1.8922   -7.1107 H         1 UNK         0.0541 
    132 H132       35.7172    5.0543   -5.8285 H         1 UNK         0.3459 
    133 H133       36.1001    3.3577   -5.9585 H         1 UNK         0.3459 
    134 H134       33.8641    1.8896   -4.7199 H         1 UNK         0.0612 
    135 H135       32.2533    2.2105   -5.3189 H         1 UNK         0.0612 
    136 H136       33.0645   -0.3352   -3.4052 H         1 UNK         0.0624 
    137 H137       31.5094    0.3019   -3.8753 H         1 UNK         0.0624 
@<TRIPOS>BOND
     1    1    2 1    
     2    1   72 1    
     3    1   73 1    
     4    1   74 1    
     5    2    3 2    
     6    2    4 am   BACKBONE|DICT|INTERRES
     7    4    5 1    
     8    4   75 1    
     9    5    6 1    
    10    5   35 1    
    11    5   76 1    
    12    6    7 1    
    13    6   77 1    
    14    6   78 1    
    15    7    8 1    
    16    8    9 1    
    17    8   79 1    
    18    8   80 1    
    19    9   10 ar   
    20    9   14 ar   
    21   10   11 ar   
    22   10   81 1    
    23   11   12 ar   
    24   11   71 1    
    25   12   13 ar   
    26   12   82 1    
    27   13   14 ar   
    28   13   15 1    
    29   14   83 1    
    30   15   16 1    
    31   15   84 1    
    32   15   85 1    
    33   16   17 1    
    34   17   18 1    
    35   17   86 1    
    36   17   87 1    
    37   18   19 1    
    38   18   37 1    
    39   18   88 1    
    40   19   20 am   BACKBONE|DICT|INTERRES
    41   19   89 1    
    42   20   21 2    
    43   20   22 1    
    44   22   23 1    
    45   22   24 1    
    46   22   90 1    
    47   23   91 1    
    48   23   92 1    
    49   23   93 1    
    50   24   25 am   BACKBONE|DICT|INTERRES
    51   24   94 1    
    52   25   26 2    
    53   25   27 1    
    54   27   28 1    
    55   27   29 1    
    56   27   95 1    
    57   28   96 1    
    58   28   97 1    
    59   28   98 1    
    60   29   30 am   BACKBONE|DICT|INTERRES
    61   29   99 1    
    62   30   31 2    
    63   30   32 1    
    64   32   33 1    
    65   32   34 1    
    66   32  100 1    
    67   33  101 1    
    68   33  102 1    
    69   33  103 1    
    70   34   35 am   BACKBONE|DICT|INTERRES
    71   34  104 1    
    72   35   36 2    
    73   37   38 2    
    74   37   39 am   BACKBONE|DICT|INTERRES
    75   39   40 1    
    76   39  105 1    
    77   40   41 1    
    78   40   42 1    
    79   40  106 1    
    80   41  107 1    
    81   41  108 1    
    82   41  109 1    
    83   42   43 2    
    84   42   44 am   BACKBONE|DICT|INTERRES
    85   44   45 1    
    86   44  110 1    
    87   45   46 1    
    88   45   47 1    
    89   45  111 1    
    90   46  112 1    
    91   46  113 1    
    92   46  114 1    
    93   47   48 2    
    94   47   49 am   BACKBONE|DICT|INTERRES
    95   49   50 1    
    96   49  115 1    
    97   50   51 1    
    98   50   52 1    
    99   50  116 1    
   100   51  117 1    
   101   51  118 1    
   102   51  119 1    
   103   52   53 2    
   104   52   54 am   BACKBONE|DICT|INTERRES
   105   54   55 1    
   106   54  120 1    
   107   55   56 1    
   108   55   57 1    
   109   55  121 1    
   110   56  122 1    
   111   56  123 1    
   112   56  124 1    
   113   57   58 2    
   114   57   59 am   BACKBONE|DICT|INTERRES
   115   59   60 1    
   116   59  125 1    
   117   60   61 1    
   118   60   62 1    
   119   60  126 1    
   120   61  127 1    
   121   61  128 1    
   122   61  129 1    
   123   62   63 2    
   124   62   64 am   BACKBONE|DICT|INTERRES
   125   64   65 1    
   126   64  130 1    
   127   65   66 1    
   128   65   69 1    
   129   65  131 1    
   130   66   67 am   BACKBONE|DICT|INTERRES
   131   66   68 2    
   132   67  132 1    
   133   67  133 1    
   134   69   70 1    
   135   69  134 1    
   136   69  135 1    
   137   70   71 1    
   138   71  136 1    
   139   71  137 1    
@<TRIPOS>SUBSTRUCTURE
     1 UNK         1 GROUP             0       ****    0 ROOT    
