@<TRIPOS>MOLECULE
3R137
137   139    1
SMALL
USER_CHARGES


@<TRIPOS>ATOM
      1 CA         25.4516   -6.0577   -5.0406 C.3       0 UNK        -0.2020 
      2 C          25.7851   -5.3125   -3.7574 C.2       0 UNK         0.4855 
      3 O          24.8777   -4.8798   -3.0463 O.2       0 UNK        -0.5197 
      4 N          27.0817   -5.1472   -3.4642 N.am      1 UNK        -0.4892 
      5 CA         27.6173   -4.4335   -2.2991 C.3       1 UNK         0.0835 
      6 C6         29.1571   -4.5718   -2.2459 C.3       12 UNK        -0.0855 
      7 S7         29.8811   -3.9801   -0.6779 S.3       12 UNK        -0.2931 
      8 C8         31.4887   -3.3290   -1.2390 C.3       12 UNK         0.0378 
      9 C9         31.3382   -2.0906   -2.1126 C.ar      12 UNK        -0.0802 
     10 C10        31.5381   -2.1709   -3.4940 C.ar      12 UNK        -0.0944 
     11 C11        31.3944   -1.0379   -4.3060 C.ar      12 UNK        -0.0787 
     12 C12        31.0858    0.1863   -3.7060 C.ar      12 UNK        -0.0862 
     13 C13        30.8615    0.2803   -2.3278 C.ar      12 UNK        -0.0733 
     14 C14        30.9983   -0.8642   -1.5373 C.ar      12 UNK        -0.0832 
     15 C15        30.4616    1.6002   -1.6694 C.3       12 UNK         0.0240 
     16 S16        29.2980    2.6235   -2.6411 S.3       12 UNK        -0.2522 
     17 C17        27.9783    1.4407   -3.0807 C.3       12 UNK        -0.0967 
     18 CA         27.8132    1.3295   -4.6209 C.3       5 UNK         0.0660 
     19 N          27.4725   -0.0277   -5.0521 N.am      5 UNK        -0.4015 
     20 C          27.3952   -0.4384   -6.3268 C.2       4 UNK         0.4946 
     21 O          27.7203    0.2515   -7.2938 O.2       4 UNK        -0.5353 
     22 CA         26.7882   -1.8314   -6.5652 C.3       4 UNK         0.0277 
     23 CB         27.8528   -2.9356   -6.4694 C.3       4 UNK        -0.1981 
     24 N          25.6954   -2.1048   -5.6276 N.am      4 UNK        -0.4209 
     25 C          24.4913   -1.5157   -5.6877 C.2       3 UNK         0.4942 
     26 O          24.1535   -0.7496   -6.5882 O.2       3 UNK        -0.5208 
     27 CA         23.5152   -1.7826   -4.5296 C.3       3 UNK         0.0250 
     28 CB         22.6324   -3.0045   -4.8259 C.3       3 UNK        -0.1990 
     29 N          24.2016   -1.9528   -3.2459 N.am      3 UNK        -0.4232 
     30 C          24.7961   -0.9465   -2.5856 C.2       2 UNK         0.4993 
     31 O          24.7797    0.2217   -2.9725 O.2       2 UNK        -0.5286 
     32 CA         25.5930   -1.2988   -1.3162 C.3       2 UNK         0.0209 
     33 CB         24.6866   -1.2367   -0.0772 C.3       2 UNK        -0.1931 
     34 N          26.2496   -2.6083   -1.3792 N.am      2 UNK        -0.4546 
     35 C          27.1522   -2.9613   -2.3050 C.2       1 UNK         0.5154 
     36 O          27.5512   -2.1977   -3.1859 O.2       1 UNK        -0.5181 
     37 C          26.8103    2.3687   -5.1634 C.2       5 UNK         0.5014 
     38 O          27.2300    3.3559   -5.7675 O.2       5 UNK        -0.5248 
     39 N          25.5058    2.1062   -4.9855 N.am      6 UNK        -0.4434 
     40 CA         24.4051    2.9306   -5.4983 C.3       6 UNK         0.0363 
     41 CB         23.0671    2.3934   -4.9672 C.3       6 UNK        -0.1936 
     42 C          24.3761    3.0313   -7.0346 C.2       6 UNK         0.5081 
     43 O          24.0660    4.0984   -7.5642 O.2       6 UNK        -0.5248 
     44 N          24.7332    1.9375   -7.7217 N.am      7 UNK        -0.4718 
     45 CA         24.9070    1.8783   -9.1769 C.3       7 UNK         0.0273 
     46 CB         24.8773    0.4071   -9.6232 C.3       7 UNK        -0.1935 
     47 C          26.1930    2.5652   -9.6814 C.2       7 UNK         0.5018 
     48 O          26.3429    2.7161  -10.8948 O.2       7 UNK        -0.5186 
     49 N          27.0897    2.9555   -8.7623 N.am      8 UNK        -0.4240 
     50 CA         28.3990    3.5747   -8.9884 C.3       8 UNK         0.0235 
     51 CB         28.2496    4.9738   -9.6244 C.3       8 UNK        -0.2000 
     52 C          29.3738    2.6573   -9.7508 C.2       8 UNK         0.4941 
     53 O          30.1089    3.1287  -10.6221 O.2       8 UNK        -0.5273 
     54 N          29.3711    1.3616   -9.4074 N.am      9 UNK        -0.4262 
     55 CA         30.3228    0.3733   -9.9178 C.3       9 UNK         0.0264 
     56 CB         29.7943   -1.0345   -9.6016 C.3       9 UNK        -0.1955 
     57 C          31.7214    0.5731   -9.3064 C.2       9 UNK         0.5031 
     58 O          31.8414    1.1159   -8.2051 O.2       9 UNK        -0.5390 
     59 N          32.7540    0.1092  -10.0221 N.am      10 UNK        -0.4204 
     60 CA         34.1459    0.1401   -9.5611 C.3       10 UNK         0.0237 
     61 CB         35.0922    0.0021  -10.7655 C.3       10 UNK        -0.1985 
     62 C          34.4452   -0.9431   -8.5101 C.2       10 UNK         0.4970 
     63 O          35.1839   -0.6735   -7.5628 O.2       10 UNK        -0.4914 
     64 N          33.8722   -2.1398   -8.7072 N.am      11 UNK        -0.4285 
     65 CA         34.0090   -3.3320   -7.8473 C.3       11 UNK         0.1007 
     66 C          35.4526   -3.9182   -7.7568 C.2       11 UNK         0.5703 
     67 N          36.3501   -3.6062   -8.6846 N.am      11 UNK        -0.7361 
     68 O          35.7600   -4.6959   -6.8560 O.2       11 UNK        -0.4986 
     69 C69        33.3352   -3.1625   -6.4542 C.3       12 UNK        -0.0947 
     70 S70        31.5682   -2.7303   -6.5927 S.3       12 UNK        -0.2240 
     71 C71        31.5402   -1.0726   -5.8287 C.3       12 UNK         0.0194 
     72 H72        25.0558   -5.3680   -5.7854 H         1 UNK         0.0906 
     73 H73        26.3266   -6.5501   -5.4644 H         1 UNK         0.0906 
     74 H74        24.6976   -6.8201   -4.8466 H         1 UNK         0.0906 
     75 H75        27.7755   -5.5141   -4.1000 H         1 UNK         0.3140 
     76 H76        27.2077   -4.9219   -1.4121 H         1 UNK         0.1085 
     77 H77        29.4393   -5.6206   -2.3513 H         1 UNK         0.0836 
     78 H78        29.6072   -4.0569   -3.0950 H         1 UNK         0.0836 
     79 H79        32.0305   -4.1147   -1.7682 H         1 UNK         0.0731 
     80 H80        32.0925   -3.0805   -0.3650 H         1 UNK         0.0731 
     81 H81        31.7920   -3.1269   -3.9272 H         1 UNK         0.1312 
     82 H82        30.9908    1.0678   -4.3245 H         1 UNK         0.1406 
     83 H83        30.8316   -0.8077   -0.4699 H         1 UNK         0.1631 
     84 H84        31.3637    2.1828   -1.4791 H         1 UNK         0.0717 
     85 H85        30.0054    1.4121   -0.6961 H         1 UNK         0.0717 
     86 H86        28.2212    0.4671   -2.6539 H         1 UNK         0.0934 
     87 H87        27.0526    1.7414   -2.5859 H         1 UNK         0.0934 
     88 H88        28.7736    1.5432   -5.0944 H         1 UNK         0.0739 
     89 H89        27.2882   -0.7091   -4.3204 H         1 UNK         0.3093 
     90 H90        26.3781   -1.8497   -7.5769 H         1 UNK         0.0818 
     91 H91        27.4118   -3.9262   -6.5772 H         1 UNK         0.0819 
     92 H92        28.5898   -2.8274   -7.2643 H         1 UNK         0.0819 
     93 H93        28.3952   -2.9079   -5.5241 H         1 UNK         0.0819 
     94 H94        25.9232   -2.6603   -4.8154 H         1 UNK         0.3041 
     95 H95        22.8594   -0.9134   -4.4461 H         1 UNK         0.0784 
     96 H96        22.0670   -2.8593   -5.7475 H         1 UNK         0.0793 
     97 H97        23.2194   -3.9141   -4.9467 H         1 UNK         0.0793 
     98 H98        21.9106   -3.1753   -4.0271 H         1 UNK         0.0793 
     99 H99        24.2962   -2.9016   -2.8955 H         1 UNK         0.3024 
    100 H100       26.3749   -0.5445   -1.2060 H         1 UNK         0.1171 
    101 H101       24.2021   -0.2623    0.0027 H         1 UNK         0.0786 
    102 H102       25.2563   -1.3887    0.8398 H         1 UNK         0.0786 
    103 H103       23.8990   -1.9905   -0.1136 H         1 UNK         0.0786 
    104 H104       25.9400   -3.3017   -0.7131 H         1 UNK         0.2977 
    105 H105       25.2439    1.3053   -4.4129 H         1 UNK         0.3127 
    106 H106       24.5459    3.9401   -5.1064 H         1 UNK         0.0770 
    107 H107       22.8665    1.3850   -5.3292 H         1 UNK         0.0814 
    108 H108       22.2384    3.0256   -5.2888 H         1 UNK         0.0814 
    109 H109       23.0525    2.3679   -3.8774 H         1 UNK         0.0814 
    110 H110       24.8918    1.0741   -7.2119 H         1 UNK         0.2983 
    111 H111       24.0641    2.3932   -9.6428 H         1 UNK         0.0947 
    112 H112       24.9401    0.3247  -10.7090 H         1 UNK         0.0806 
    113 H113       23.9544   -0.0842   -9.3146 H         1 UNK         0.0806 
    114 H114       25.7131   -0.1546   -9.2057 H         1 UNK         0.0806 
    115 H115       26.8722    2.7711   -7.7894 H         1 UNK         0.3000 
    116 H116       28.8379    3.7129   -7.9991 H         1 UNK         0.0850 
    117 H117       29.2100    5.4892   -9.6629 H         1 UNK         0.0810 
    118 H118       27.5697    5.6002   -9.0469 H         1 UNK         0.0810 
    119 H119       27.8708    4.9180  -10.6453 H         1 UNK         0.0810 
    120 H120       28.7551    1.0515   -8.6576 H         1 UNK         0.3040 
    121 H121       30.3910    0.4882  -11.0017 H         1 UNK         0.0766 
    122 H122       28.7993   -1.1901  -10.0190 H         1 UNK         0.0812 
    123 H123       29.7342   -1.1999   -8.5265 H         1 UNK         0.0812 
    124 H124       30.4457   -1.8059  -10.0137 H         1 UNK         0.0812 
    125 H125       32.5773   -0.3071  -10.9255 H         1 UNK         0.3205 
    126 H126       34.3345    1.1109   -9.0967 H         1 UNK         0.0754 
    127 H127       36.1353    0.0379  -10.4476 H         1 UNK         0.0769 
    128 H128       34.9459    0.8142  -11.4781 H         1 UNK         0.0769 
    129 H129       34.9447   -0.9397  -11.2956 H         1 UNK         0.0769 
    130 H130       33.2916   -2.2631   -9.5223 H         1 UNK         0.2981 
    131 H131       33.4504   -4.1113   -8.3666 H         1 UNK         0.0541 
    132 H132       36.1126   -2.9818   -9.4379 H         1 UNK         0.3459 
    133 H133       37.2766   -3.9984   -8.6253 H         1 UNK         0.3459 
    134 H134       33.3883   -4.0931   -5.8869 H         1 UNK         0.0612 
    135 H135       33.8619   -2.4162   -5.8577 H         1 UNK         0.0612 
    136 H136       30.6975   -0.5334   -6.2644 H         1 UNK         0.0624 
    137 H137       32.4372   -0.5233   -6.1164 H         1 UNK         0.0624 
@<TRIPOS>BOND
     1    1    2 1    
     2    1   72 1    
     3    1   73 1    
     4    1   74 1    
     5    2    3 2    
     6    2    4 am   BACKBONE|DICT|INTERRES
     7    4    5 1    
     8    4   75 1    
     9    5    6 1    
    10    5   35 1    
    11    5   76 1    
    12    6    7 1    
    13    6   77 1    
    14    6   78 1    
    15    7    8 1    
    16    8    9 1    
    17    8   79 1    
    18    8   80 1    
    19    9   10 ar   
    20    9   14 ar   
    21   10   11 ar   
    22   10   81 1    
    23   11   12 ar   
    24   11   71 1    
    25   12   13 ar   
    26   12   82 1    
    27   13   14 ar   
    28   13   15 1    
    29   14   83 1    
    30   15   16 1    
    31   15   84 1    
    32   15   85 1    
    33   16   17 1    
    34   17   18 1    
    35   17   86 1    
    36   17   87 1    
    37   18   19 1    
    38   18   37 1    
    39   18   88 1    
    40   19   20 am   BACKBONE|DICT|INTERRES
    41   19   89 1    
    42   20   21 2    
    43   20   22 1    
    44   22   23 1    
    45   22   24 1    
    46   22   90 1    
    47   23   91 1    
    48   23   92 1    
    49   23   93 1    
    50   24   25 am   BACKBONE|DICT|INTERRES
    51   24   94 1    
    52   25   26 2    
    53   25   27 1    
    54   27   28 1    
    55   27   29 1    
    56   27   95 1    
    57   28   96 1    
    58   28   97 1    
    59   28   98 1    
    60   29   30 am   BACKBONE|DICT|INTERRES
    61   29   99 1    
    62   30   31 2    
    63   30   32 1    
    64   32   33 1    
    65   32   34 1    
    66   32  100 1    
    67   33  101 1    
    68   33  102 1    
    69   33  103 1    
    70   34   35 am   BACKBONE|DICT|INTERRES
    71   34  104 1    
    72   35   36 2    
    73   37   38 2    
    74   37   39 am   BACKBONE|DICT|INTERRES
    75   39   40 1    
    76   39  105 1    
    77   40   41 1    
    78   40   42 1    
    79   40  106 1    
    80   41  107 1    
    81   41  108 1    
    82   41  109 1    
    83   42   43 2    
    84   42   44 am   BACKBONE|DICT|INTERRES
    85   44   45 1    
    86   44  110 1    
    87   45   46 1    
    88   45   47 1    
    89   45  111 1    
    90   46  112 1    
    91   46  113 1    
    92   46  114 1    
    93   47   48 2    
    94   47   49 am   BACKBONE|DICT|INTERRES
    95   49   50 1    
    96   49  115 1    
    97   50   51 1    
    98   50   52 1    
    99   50  116 1    
   100   51  117 1    
   101   51  118 1    
   102   51  119 1    
   103   52   53 2    
   104   52   54 am   BACKBONE|DICT|INTERRES
   105   54   55 1    
   106   54  120 1    
   107   55   56 1    
   108   55   57 1    
   109   55  121 1    
   110   56  122 1    
   111   56  123 1    
   112   56  124 1    
   113   57   58 2    
   114   57   59 am   BACKBONE|DICT|INTERRES
   115   59   60 1    
   116   59  125 1    
   117   60   61 1    
   118   60   62 1    
   119   60  126 1    
   120   61  127 1    
   121   61  128 1    
   122   61  129 1    
   123   62   63 2    
   124   62   64 am   BACKBONE|DICT|INTERRES
   125   64   65 1    
   126   64  130 1    
   127   65   66 1    
   128   65   69 1    
   129   65  131 1    
   130   66   67 am   BACKBONE|DICT|INTERRES
   131   66   68 2    
   132   67  132 1    
   133   67  133 1    
   134   69   70 1    
   135   69  134 1    
   136   69  135 1    
   137   70   71 1    
   138   71  136 1    
   139   71  137 1    
@<TRIPOS>SUBSTRUCTURE
     1 UNK         1 GROUP             0       ****    0 ROOT    
