@<TRIPOS>MOLECULE
3R137
137   139    1
SMALL
USER_CHARGES


@<TRIPOS>ATOM
      1 CA         24.1857   -5.1991   -5.8671 C.3       0 UNK        -0.2020 
      2 C          24.4711   -4.3569   -4.6340 C.2       0 UNK         0.4855 
      3 O          24.5349   -3.1333   -4.7361 O.2       0 UNK        -0.5197 
      4 N          24.6202   -5.0005   -3.4660 N.am      1 UNK        -0.4892 
      5 CA         25.0094   -4.4125   -2.1683 C.3       1 UNK         0.0835 
      6 C6         26.4848   -3.9158   -2.1535 C.3       12 UNK        -0.0855 
      7 S7         27.6595   -5.2879   -2.4175 S.3       12 UNK        -0.2931 
      8 C8         28.2556   -4.9672   -4.1147 C.3       12 UNK         0.0378 
      9 C9         29.5332   -4.1319   -4.2405 C.ar      12 UNK        -0.0802 
     10 C10        29.9977   -3.8495   -5.5289 C.ar      12 UNK        -0.0944 
     11 C11        31.1801   -3.1328   -5.7275 C.ar      12 UNK        -0.0787 
     12 C12        31.9050   -2.6818   -4.6221 C.ar      12 UNK        -0.0862 
     13 C13        31.4504   -2.9371   -3.3254 C.ar      12 UNK        -0.0733 
     14 C14        30.2716   -3.6701   -3.1399 C.ar      12 UNK        -0.0832 
     15 C15        32.2321   -2.4125   -2.1274 C.3       12 UNK         0.0240 
     16 S16        31.2988   -1.1659   -1.1788 S.3       12 UNK        -0.2522 
     17 C17        31.1175    0.2044   -2.3778 C.3       12 UNK        -0.0967 
     18 CA         29.8440    0.0709   -3.2567 C.3       5 UNK         0.0660 
     19 N          28.6178   -0.1856   -2.4978 N.am      5 UNK        -0.4015 
     20 C          27.9420    0.6705   -1.7223 C.2       4 UNK         0.4946 
     21 O          28.3014    1.8215   -1.4661 O.2       4 UNK        -0.5353 
     22 CA         26.6034    0.1396   -1.1788 C.3       4 UNK         0.0277 
     23 CB         26.2961    0.6998    0.2212 C.3       4 UNK        -0.1981 
     24 N          25.4557    0.4026   -2.0564 N.am      4 UNK        -0.4209 
     25 C          25.3443    0.1461   -3.3692 C.2       3 UNK         0.4942 
     26 O          26.2543   -0.2833   -4.0804 O.2       3 UNK        -0.5208 
     27 CA         23.9383    0.3208   -3.9580 C.3       3 UNK         0.0250 
     28 CB         23.9381    0.3615   -5.4965 C.3       3 UNK        -0.1990 
     29 N          23.1577   -0.8288   -3.5145 N.am      3 UNK        -0.4232 
     30 C          22.3255   -0.8344   -2.4639 C.2       2 UNK         0.4993 
     31 O          21.9836    0.1809   -1.8566 O.2       2 UNK        -0.5286 
     32 CA         21.8326   -2.2084   -1.9709 C.3       2 UNK         0.0209 
     33 CB         20.5027   -2.5809   -2.6457 C.3       2 UNK        -0.1931 
     34 N          22.8107   -3.2771   -2.1992 N.am      2 UNK        -0.4546 
     35 C          24.0279   -3.3381   -1.6365 C.2       1 UNK         0.5154 
     36 O          24.3840   -2.5806   -0.7326 O.2       1 UNK        -0.5181 
     37 C          29.6700    1.2067   -4.2883 C.2       5 UNK         0.5014 
     38 O          30.5872    2.0010   -4.5005 O.2       5 UNK        -0.5248 
     39 N          28.4919    1.2453   -4.9230 N.am      6 UNK        -0.4434 
     40 CA         28.1174    2.1843   -5.9787 C.3       6 UNK         0.0363 
     41 CB         27.3704    3.3775   -5.3534 C.3       6 UNK        -0.1936 
     42 C          27.2878    1.4805   -7.0676 C.2       6 UNK         0.5081 
     43 O          26.5507    2.1470   -7.7948 O.2       6 UNK        -0.5248 
     44 N          27.4019    0.1465   -7.1588 N.am      7 UNK        -0.4718 
     45 CA         26.6598   -0.7036   -8.0966 C.3       7 UNK         0.0273 
     46 CB         26.8263   -2.1723   -7.6725 C.3       7 UNK        -0.1935 
     47 C          27.0663   -0.5062   -9.5691 C.2       7 UNK         0.5018 
     48 O          26.2698   -0.7982  -10.4621 O.2       7 UNK        -0.5186 
     49 N          28.2826   -0.0023   -9.7916 N.am      8 UNK        -0.4240 
     50 CA         28.8468    0.3902  -11.0750 C.3       8 UNK         0.0235 
     51 CB         29.4771   -0.8353  -11.7622 C.3       8 UNK        -0.2000 
     52 C          29.8992    1.4693  -10.8010 C.2       8 UNK         0.4941 
     53 O          30.3685    1.5884   -9.6658 O.2       8 UNK        -0.5273 
     54 N          30.3017    2.2029  -11.8477 N.am      9 UNK        -0.4262 
     55 CA         31.3558    3.2267  -11.7849 C.3       9 UNK         0.0264 
     56 CB         31.4577    3.9416  -13.1419 C.3       9 UNK        -0.1955 
     57 C          32.7311    2.6738  -11.3610 C.2       9 UNK         0.5031 
     58 O          33.5143    3.3964  -10.7434 O.2       9 UNK        -0.5390 
     59 N          32.9779    1.3915  -11.6631 N.am      10 UNK        -0.4204 
     60 CA         34.1575    0.6304  -11.2504 C.3       10 UNK         0.0237 
     61 CB         34.1829   -0.7006  -12.0206 C.3       10 UNK        -0.1985 
     62 C          34.2439    0.3707   -9.7335 C.2       10 UNK         0.4970 
     63 O          35.3358    0.0614   -9.2544 O.2       10 UNK        -0.4914 
     64 N          33.1224    0.4844   -9.0057 N.am      11 UNK        -0.4285 
     65 CA         33.0681    0.2994   -7.5468 C.3       11 UNK         0.1007 
     66 C          33.6741    1.4771   -6.7297 C.2       11 UNK         0.5703 
     67 N          33.9279    2.6396   -7.3219 N.am      11 UNK        -0.7361 
     68 O          33.9431    1.3216   -5.5411 O.2       11 UNK        -0.4986 
     69 C69        31.6405   -0.0449   -7.0456 C.3       12 UNK        -0.0947 
     70 S70        30.8677   -1.4494   -7.9157 S.3       12 UNK        -0.2240 
     71 C71        31.6855   -2.8761   -7.1389 C.3       12 UNK         0.0194 
     72 H72        23.2257   -4.9180   -6.2992 H         1 UNK         0.0906 
     73 H73        24.9582   -5.0328   -6.6175 H         1 UNK         0.0906 
     74 H74        24.1584   -6.2642   -5.6383 H         1 UNK         0.0906 
     75 H75        24.5280   -6.0075   -3.4554 H         1 UNK         0.3140 
     76 H76        24.9349   -5.2242   -1.4425 H         1 UNK         0.1085 
     77 H77        26.6400   -3.1293   -2.8946 H         1 UNK         0.0836 
     78 H78        26.7387   -3.4755   -1.1877 H         1 UNK         0.0836 
     79 H79        28.4411   -5.9351   -4.5825 H         1 UNK         0.0731 
     80 H80        27.4607   -4.4990   -4.6967 H         1 UNK         0.0731 
     81 H81        29.4431   -4.2036   -6.3876 H         1 UNK         0.1312 
     82 H82        32.8199   -2.1249   -4.7728 H         1 UNK         0.1406 
     83 H83        29.9407   -3.8689   -2.1306 H         1 UNK         0.1631 
     84 H84        33.1864   -1.9835   -2.4373 H         1 UNK         0.0717 
     85 H85        32.4725   -3.2477   -1.4681 H         1 UNK         0.0717 
     86 H86        31.0886    1.1408   -1.8178 H         1 UNK         0.0934 
     87 H87        32.0121    0.2518   -3.0021 H         1 UNK         0.0934 
     88 H88        29.9678   -0.8135   -3.8779 H         1 UNK         0.0739 
     89 H89        28.1883   -1.0803   -2.6829 H         1 UNK         0.3093 
     90 H90        26.6888   -0.9441   -1.0811 H         1 UNK         0.0818 
     91 H91        25.4205    0.2177    0.6570 H         1 UNK         0.0819 
     92 H92        27.1308    0.5279    0.9023 H         1 UNK         0.0819 
     93 H93        26.1120    1.7746    0.1957 H         1 UNK         0.0819 
     94 H94        24.6232    0.7295   -1.5861 H         1 UNK         0.3041 
     95 H95        23.5141    1.2567   -3.5881 H         1 UNK         0.0784 
     96 H96        22.9283    0.4818   -5.8884 H         1 UNK         0.0793 
     97 H97        24.5318    1.1988   -5.8639 H         1 UNK         0.0793 
     98 H98        24.3546   -0.5515   -5.9241 H         1 UNK         0.0793 
     99 H99        23.4510   -1.7194   -3.9101 H         1 UNK         0.3024 
    100 H100       21.6662   -2.1283   -0.8941 H         1 UNK         0.1171 
    101 H101       20.6139   -2.6914   -3.7252 H         1 UNK         0.0786 
    102 H102       19.7493   -1.8111   -2.4726 H         1 UNK         0.0786 
    103 H103       20.1049   -3.5158   -2.2505 H         1 UNK         0.0786 
    104 H104       22.6015   -3.9426   -2.9294 H         1 UNK         0.2977 
    105 H105       27.7605    0.5893   -4.6441 H         1 UNK         0.3127 
    106 H106       29.0168    2.5557   -6.4748 H         1 UNK         0.0770 
    107 H107       26.4390    3.0622   -4.8817 H         1 UNK         0.0814 
    108 H108       27.1216    4.1263   -6.1063 H         1 UNK         0.0814 
    109 H109       27.9787    3.8718   -4.5958 H         1 UNK         0.0814 
    110 H110       28.0365   -0.3254   -6.5317 H         1 UNK         0.2983 
    111 H111       25.6025   -0.4423   -8.0204 H         1 UNK         0.0947 
    112 H112       26.2508   -2.8338   -8.3213 H         1 UNK         0.0806 
    113 H113       26.4723   -2.3320   -6.6531 H         1 UNK         0.0806 
    114 H114       27.8681   -2.4911   -7.7212 H         1 UNK         0.0806 
    115 H115       28.8657    0.2424   -8.9996 H         1 UNK         0.3000 
    116 H116       28.0617    0.8151  -11.7041 H         1 UNK         0.0850 
    117 H117       30.2784   -1.2657  -11.1595 H         1 UNK         0.0810 
    118 H118       28.7364   -1.6163  -11.9352 H         1 UNK         0.0810 
    119 H119       29.8991   -0.5729  -12.7328 H         1 UNK         0.0810 
    120 H120       29.8704    2.0493  -12.7486 H         1 UNK         0.3040 
    121 H121       31.0575    3.9603  -11.0328 H         1 UNK         0.0766 
    122 H122       30.5158    4.4199  -13.4111 H         1 UNK         0.0812 
    123 H123       31.7276    3.2531  -13.9436 H         1 UNK         0.0812 
    124 H124       32.2184    4.7233  -13.1143 H         1 UNK         0.0812 
    125 H125       32.2727    0.8866  -12.1789 H         1 UNK         0.3205 
    126 H126       35.0416    1.2070  -11.5305 H         1 UNK         0.0754 
    127 H127       35.0701   -1.2827  -11.7668 H         1 UNK         0.0769 
    128 H128       34.2045   -0.5367  -13.0983 H         1 UNK         0.0769 
    129 H129       33.3127   -1.3171  -11.7902 H         1 UNK         0.0769 
    130 H130       32.2539    0.7712   -9.4425 H         1 UNK         0.2981 
    131 H131       33.6974   -0.5608   -7.3133 H         1 UNK         0.0541 
    132 H132       33.7245    2.7737   -8.3016 H         1 UNK         0.3459 
    133 H133       34.3284    3.3899   -6.7820 H         1 UNK         0.3459 
    134 H134       30.9843    0.8182   -7.1667 H         1 UNK         0.0612 
    135 H135       31.6528   -0.2610   -5.9777 H         1 UNK         0.0612 
    136 H136       32.7663   -2.7316   -7.1434 H         1 UNK         0.0624 
    137 H137       31.4989   -3.7570   -7.7548 H         1 UNK         0.0624 
@<TRIPOS>BOND
     1    1    2 1    
     2    1   72 1    
     3    1   73 1    
     4    1   74 1    
     5    2    3 2    
     6    2    4 am   BACKBONE|DICT|INTERRES
     7    4    5 1    
     8    4   75 1    
     9    5    6 1    
    10    5   35 1    
    11    5   76 1    
    12    6    7 1    
    13    6   77 1    
    14    6   78 1    
    15    7    8 1    
    16    8    9 1    
    17    8   79 1    
    18    8   80 1    
    19    9   10 ar   
    20    9   14 ar   
    21   10   11 ar   
    22   10   81 1    
    23   11   12 ar   
    24   11   71 1    
    25   12   13 ar   
    26   12   82 1    
    27   13   14 ar   
    28   13   15 1    
    29   14   83 1    
    30   15   16 1    
    31   15   84 1    
    32   15   85 1    
    33   16   17 1    
    34   17   18 1    
    35   17   86 1    
    36   17   87 1    
    37   18   19 1    
    38   18   37 1    
    39   18   88 1    
    40   19   20 am   BACKBONE|DICT|INTERRES
    41   19   89 1    
    42   20   21 2    
    43   20   22 1    
    44   22   23 1    
    45   22   24 1    
    46   22   90 1    
    47   23   91 1    
    48   23   92 1    
    49   23   93 1    
    50   24   25 am   BACKBONE|DICT|INTERRES
    51   24   94 1    
    52   25   26 2    
    53   25   27 1    
    54   27   28 1    
    55   27   29 1    
    56   27   95 1    
    57   28   96 1    
    58   28   97 1    
    59   28   98 1    
    60   29   30 am   BACKBONE|DICT|INTERRES
    61   29   99 1    
    62   30   31 2    
    63   30   32 1    
    64   32   33 1    
    65   32   34 1    
    66   32  100 1    
    67   33  101 1    
    68   33  102 1    
    69   33  103 1    
    70   34   35 am   BACKBONE|DICT|INTERRES
    71   34  104 1    
    72   35   36 2    
    73   37   38 2    
    74   37   39 am   BACKBONE|DICT|INTERRES
    75   39   40 1    
    76   39  105 1    
    77   40   41 1    
    78   40   42 1    
    79   40  106 1    
    80   41  107 1    
    81   41  108 1    
    82   41  109 1    
    83   42   43 2    
    84   42   44 am   BACKBONE|DICT|INTERRES
    85   44   45 1    
    86   44  110 1    
    87   45   46 1    
    88   45   47 1    
    89   45  111 1    
    90   46  112 1    
    91   46  113 1    
    92   46  114 1    
    93   47   48 2    
    94   47   49 am   BACKBONE|DICT|INTERRES
    95   49   50 1    
    96   49  115 1    
    97   50   51 1    
    98   50   52 1    
    99   50  116 1    
   100   51  117 1    
   101   51  118 1    
   102   51  119 1    
   103   52   53 2    
   104   52   54 am   BACKBONE|DICT|INTERRES
   105   54   55 1    
   106   54  120 1    
   107   55   56 1    
   108   55   57 1    
   109   55  121 1    
   110   56  122 1    
   111   56  123 1    
   112   56  124 1    
   113   57   58 2    
   114   57   59 am   BACKBONE|DICT|INTERRES
   115   59   60 1    
   116   59  125 1    
   117   60   61 1    
   118   60   62 1    
   119   60  126 1    
   120   61  127 1    
   121   61  128 1    
   122   61  129 1    
   123   62   63 2    
   124   62   64 am   BACKBONE|DICT|INTERRES
   125   64   65 1    
   126   64  130 1    
   127   65   66 1    
   128   65   69 1    
   129   65  131 1    
   130   66   67 am   BACKBONE|DICT|INTERRES
   131   66   68 2    
   132   67  132 1    
   133   67  133 1    
   134   69   70 1    
   135   69  134 1    
   136   69  135 1    
   137   70   71 1    
   138   71  136 1    
   139   71  137 1    
@<TRIPOS>SUBSTRUCTURE
     1 UNK         1 GROUP             0       ****    0 ROOT    
