@<TRIPOS>MOLECULE
3R137
137   139    1
SMALL
USER_CHARGES


@<TRIPOS>ATOM
      1 CA         27.2225   -4.9123    4.1094 C.3       0 UNK        -0.2020 
      2 C          27.0362   -3.7651    3.1271 C.2       0 UNK         0.4855 
      3 O          26.4262   -2.7541    3.4782 O.2       0 UNK        -0.5197 
      4 N          27.5638   -3.9122    1.9052 N.am      1 UNK        -0.4892 
      5 CA         27.4236   -2.9477    0.8089 C.3       1 UNK         0.0835 
      6 C6         28.6976   -2.9219   -0.0829 C.3       12 UNK        -0.0855 
      7 S7         28.8791   -1.3539   -1.0130 S.3       12 UNK        -0.2931 
      8 C8         30.5568   -1.4993   -1.7069 C.3       12 UNK         0.0378 
      9 C9         30.6799   -2.2479   -3.0372 C.ar      12 UNK        -0.0802 
     10 C10        31.8343   -2.0271   -3.7925 C.ar      12 UNK        -0.0944 
     11 C11        32.0573   -2.7142   -4.9863 C.ar      12 UNK        -0.0787 
     12 C12        31.1151   -3.6478   -5.4276 C.ar      12 UNK        -0.0862 
     13 C13        29.9572   -3.8948   -4.6828 C.ar      12 UNK        -0.0733 
     14 C14        29.7325   -3.1733   -3.5031 C.ar      12 UNK        -0.0832 
     15 C15        29.0100   -5.0180   -5.0973 C.3       12 UNK         0.0240 
     16 S16        28.1242   -4.6974   -6.6571 S.3       12 UNK        -0.2522 
     17 C17        26.7865   -3.5936   -6.0947 C.3       12 UNK        -0.0967 
     18 CA         26.5209   -2.4125   -7.0600 C.3       5 UNK         0.0660 
     19 N          25.2975   -1.6859   -6.7102 N.am      5 UNK        -0.4015 
     20 C          24.7122   -0.7524   -7.4761 C.2       4 UNK         0.4946 
     21 O          25.1119   -0.4280   -8.5928 O.2       4 UNK        -0.5353 
     22 CA         23.4921   -0.0270   -6.8848 C.3       4 UNK         0.0277 
     23 CB         22.2091   -0.8371   -7.1291 C.3       4 UNK        -0.1981 
     24 N          23.6332    0.2556   -5.4553 N.am      4 UNK        -0.4209 
     25 C          24.5573    1.0746   -4.9323 C.2       3 UNK         0.4942 
     26 O          25.3672    1.7150   -5.6008 O.2       3 UNK        -0.5208 
     27 CA         24.6227    1.1493   -3.3988 C.3       3 UNK         0.0250 
     28 CB         23.6223    2.1863   -2.8639 C.3       3 UNK        -0.1990 
     29 N          24.4056   -0.1401   -2.7306 N.am      3 UNK        -0.4232 
     30 C          25.1533   -1.2339   -2.9305 C.2       2 UNK         0.4993 
     31 O          26.0731   -1.2974   -3.7502 O.2       2 UNK        -0.5286 
     32 CA         24.8727   -2.4408   -2.0338 C.3       2 UNK         0.0209 
     33 CB         24.7511   -3.7468   -2.8427 C.3       2 UNK        -0.1931 
     34 N          26.0015   -2.4972   -1.1200 N.am      2 UNK        -0.4546 
     35 C          26.1173   -3.1926    0.0119 C.2       1 UNK         0.5154 
     36 O          25.2538   -3.9723    0.4242 O.2       1 UNK        -0.5181 
     37 C          27.7164   -1.4495   -7.1282 C.2       5 UNK         0.5014 
     38 O          28.3934   -1.3978   -8.1565 O.2       5 UNK        -0.5248 
     39 N          27.9126   -0.6766   -6.0495 N.am      6 UNK        -0.4434 
     40 CA         28.9734    0.3229   -5.9327 C.3       6 UNK         0.0363 
     41 CB         28.9307    0.9605   -4.5363 C.3       6 UNK        -0.1936 
     42 C          28.9085    1.3956   -7.0326 C.2       6 UNK         0.5081 
     43 O          29.9475    1.7414   -7.5929 O.2       6 UNK        -0.5248 
     44 N          27.6944    1.8675   -7.3517 N.am      7 UNK        -0.4718 
     45 CA         27.4290    2.8035   -8.4441 C.3       7 UNK         0.0273 
     46 CB         25.9827    3.3163   -8.3547 C.3       7 UNK        -0.1935 
     47 C          27.7090    2.2027   -9.8308 C.2       7 UNK         0.5018 
     48 O          28.4110    2.8345  -10.6204 O.2       7 UNK        -0.5186 
     49 N          27.1726    1.0029  -10.1051 N.am      8 UNK        -0.4240 
     50 CA         27.3159    0.3104  -11.3911 C.3       8 UNK         0.0235 
     51 CB         26.3916   -0.9166  -11.4374 C.3       8 UNK        -0.2000 
     52 C          28.7624   -0.0979  -11.7066 C.2       8 UNK         0.4941 
     53 O          29.2004    0.0674  -12.8459 O.2       8 UNK        -0.5273 
     54 N          29.4807   -0.6063  -10.6971 N.am      9 UNK        -0.4262 
     55 CA         30.8905   -0.9874  -10.8044 C.3       9 UNK         0.0264 
     56 CB         31.1949   -2.0550   -9.7428 C.3       9 UNK        -0.1955 
     57 C          31.8598    0.2073  -10.6954 C.2       9 UNK         0.5031 
     58 O          33.0445    0.0321  -10.9849 O.2       9 UNK        -0.5390 
     59 N          31.3521    1.3844  -10.2941 N.am      10 UNK        -0.4204 
     60 CA         32.0701    2.6453  -10.0632 C.3       10 UNK         0.0237 
     61 CB         32.6124    3.2219  -11.3884 C.3       10 UNK        -0.1985 
     62 C          33.1461    2.5170   -8.9665 C.2       10 UNK         0.4970 
     63 O          34.2749    2.9812   -9.1419 O.2       10 UNK        -0.4914 
     64 N          32.7713    1.8658   -7.8618 N.am      11 UNK        -0.4285 
     65 CA         33.6281    1.6031   -6.7000 C.3       11 UNK         0.1007 
     66 C          33.7341    2.8368   -5.7651 C.2       11 UNK         0.5703 
     67 N          34.8274    2.9562   -5.0237 N.am      11 UNK        -0.7361 
     68 O          32.8303    3.6666   -5.6774 O.2       11 UNK        -0.4986 
     69 C69        33.1532    0.3476   -5.9244 C.3       12 UNK        -0.0947 
     70 S70        33.1836   -1.1430   -6.9757 S.3       12 UNK        -0.2240 
     71 C71        33.3458   -2.4852   -5.7625 C.3       12 UNK         0.0194 
     72 H72        27.7502   -4.5645    4.9972 H         1 UNK         0.0906 
     73 H73        26.2529   -5.3010    4.4196 H         1 UNK         0.0906 
     74 H74        27.7936   -5.7332    3.6760 H         1 UNK         0.0906 
     75 H75        28.0161   -4.7833    1.6656 H         1 UNK         0.3140 
     76 H76        27.3192   -1.9545    1.2525 H         1 UNK         0.1085 
     77 H77        29.5829   -3.0170    0.5484 H         1 UNK         0.0836 
     78 H78        28.7230   -3.7797   -0.7558 H         1 UNK         0.0836 
     79 H79        30.9316   -0.4833   -1.8421 H         1 UNK         0.0731 
     80 H80        31.2135   -1.9686   -0.9732 H         1 UNK         0.0731 
     81 H81        32.5778   -1.3258   -3.4389 H         1 UNK         0.1312 
     82 H82        31.2958   -4.2054   -6.3366 H         1 UNK         0.1406 
     83 H83        28.8348   -3.3679   -2.9370 H         1 UNK         0.1631 
     84 H84        28.2864   -5.2321   -4.3090 H         1 UNK         0.0717 
     85 H85        29.5936   -5.9315   -5.2197 H         1 UNK         0.0717 
     86 H86        25.8850   -4.1992   -5.9899 H         1 UNK         0.0934 
     87 H87        27.0235   -3.2282   -5.0957 H         1 UNK         0.0934 
     88 H88        26.3721   -2.8225   -8.0616 H         1 UNK         0.0739 
     89 H89        24.9502   -1.8241   -5.7725 H         1 UNK         0.3093 
     90 H90        23.3956    0.9290   -7.4042 H         1 UNK         0.0818 
     91 H91        21.3260   -0.2924   -6.7945 H         1 UNK         0.0819 
     92 H92        22.0761   -1.0428   -8.1924 H         1 UNK         0.0819 
     93 H93        22.2287   -1.7971   -6.6118 H         1 UNK         0.0819 
     94 H94        23.0058   -0.2233   -4.8257 H         1 UNK         0.3041 
     95 H95        25.6293    1.4827   -3.1368 H         1 UNK         0.0784 
     96 H96        23.7773    3.1573   -3.3370 H         1 UNK         0.0793 
     97 H97        22.5899    1.8914   -3.0560 H         1 UNK         0.0793 
     98 H98        23.7366    2.3311   -1.7895 H         1 UNK         0.0793 
     99 H99        23.6836   -0.1637   -2.0244 H         1 UNK         0.3024 
    100 H100       23.9529   -2.2787   -1.4678 H         1 UNK         0.1171 
    101 H101       24.0003   -3.6552   -3.6284 H         1 UNK         0.0786 
    102 H102       24.4512   -4.5788   -2.2057 H         1 UNK         0.0786 
    103 H103       25.6947   -4.0191   -3.3148 H         1 UNK         0.0786 
    104 H104       26.7791   -1.8980   -1.3810 H         1 UNK         0.2977 
    105 H105       27.2973   -0.7928   -5.2485 H         1 UNK         0.3127 
    106 H106       29.9218   -0.2074   -6.0407 H         1 UNK         0.0770 
    107 H107       27.9937    1.4911   -4.3639 H         1 UNK         0.0814 
    108 H108       29.7438    1.6766   -4.4103 H         1 UNK         0.0814 
    109 H109       29.0359    0.2075   -3.7556 H         1 UNK         0.0814 
    110 H110       26.8926    1.5720   -6.8003 H         1 UNK         0.2983 
    111 H111       28.0977    3.6577   -8.3159 H         1 UNK         0.0947 
    112 H112       25.7656    4.0195   -9.1599 H         1 UNK         0.0806 
    113 H113       25.8059    3.8370   -7.4134 H         1 UNK         0.0806 
    114 H114       25.2600    2.5027   -8.4257 H         1 UNK         0.0806 
    115 H115       26.5911    0.5445   -9.4072 H         1 UNK         0.3000 
    116 H116       26.9949    1.0025  -12.1727 H         1 UNK         0.0850 
    117 H117       26.4865   -1.4445  -12.3872 H         1 UNK         0.0810 
    118 H118       25.3458   -0.6282  -11.3311 H         1 UNK         0.0810 
    119 H119       26.6254   -1.6263  -10.6425 H         1 UNK         0.0810 
    120 H120       29.0349   -0.7548   -9.7916 H         1 UNK         0.3040 
    121 H121       31.0571   -1.4403  -11.7841 H         1 UNK         0.0766 
    122 H122       32.2436   -2.3540   -9.7697 H         1 UNK         0.0812 
    123 H123       30.5962   -2.9522   -9.9001 H         1 UNK         0.0812 
    124 H124       30.9814   -1.6891   -8.7387 H         1 UNK         0.0812 
    125 H125       30.3681    1.4073  -10.0592 H         1 UNK         0.3205 
    126 H126       31.3283    3.3473   -9.6788 H         1 UNK         0.0754 
    127 H127       33.0407    4.2133  -11.2363 H         1 UNK         0.0769 
    128 H128       31.8187    3.3223  -12.1289 H         1 UNK         0.0769 
    129 H129       33.3933    2.5924  -11.8161 H         1 UNK         0.0769 
    130 H130       31.7914    1.6103   -7.7647 H         1 UNK         0.2981 
    131 H131       34.6336    1.3971   -7.0731 H         1 UNK         0.0541 
    132 H132       35.5726    2.2795   -5.0791 H         1 UNK         0.3459 
    133 H133       34.9118    3.7439   -4.4004 H         1 UNK         0.3459 
    134 H134       32.1425    0.4882   -5.5385 H         1 UNK         0.0612 
    135 H135       33.7958    0.1725   -5.0600 H         1 UNK         0.0612 
    136 H136       33.6238   -3.3978   -6.2917 H         1 UNK         0.0624 
    137 H137       34.1705   -2.2675   -5.0822 H         1 UNK         0.0624 
@<TRIPOS>BOND
     1    1    2 1    
     2    1   72 1    
     3    1   73 1    
     4    1   74 1    
     5    2    3 2    
     6    2    4 am   BACKBONE|DICT|INTERRES
     7    4    5 1    
     8    4   75 1    
     9    5    6 1    
    10    5   35 1    
    11    5   76 1    
    12    6    7 1    
    13    6   77 1    
    14    6   78 1    
    15    7    8 1    
    16    8    9 1    
    17    8   79 1    
    18    8   80 1    
    19    9   10 ar   
    20    9   14 ar   
    21   10   11 ar   
    22   10   81 1    
    23   11   12 ar   
    24   11   71 1    
    25   12   13 ar   
    26   12   82 1    
    27   13   14 ar   
    28   13   15 1    
    29   14   83 1    
    30   15   16 1    
    31   15   84 1    
    32   15   85 1    
    33   16   17 1    
    34   17   18 1    
    35   17   86 1    
    36   17   87 1    
    37   18   19 1    
    38   18   37 1    
    39   18   88 1    
    40   19   20 am   BACKBONE|DICT|INTERRES
    41   19   89 1    
    42   20   21 2    
    43   20   22 1    
    44   22   23 1    
    45   22   24 1    
    46   22   90 1    
    47   23   91 1    
    48   23   92 1    
    49   23   93 1    
    50   24   25 am   BACKBONE|DICT|INTERRES
    51   24   94 1    
    52   25   26 2    
    53   25   27 1    
    54   27   28 1    
    55   27   29 1    
    56   27   95 1    
    57   28   96 1    
    58   28   97 1    
    59   28   98 1    
    60   29   30 am   BACKBONE|DICT|INTERRES
    61   29   99 1    
    62   30   31 2    
    63   30   32 1    
    64   32   33 1    
    65   32   34 1    
    66   32  100 1    
    67   33  101 1    
    68   33  102 1    
    69   33  103 1    
    70   34   35 am   BACKBONE|DICT|INTERRES
    71   34  104 1    
    72   35   36 2    
    73   37   38 2    
    74   37   39 am   BACKBONE|DICT|INTERRES
    75   39   40 1    
    76   39  105 1    
    77   40   41 1    
    78   40   42 1    
    79   40  106 1    
    80   41  107 1    
    81   41  108 1    
    82   41  109 1    
    83   42   43 2    
    84   42   44 am   BACKBONE|DICT|INTERRES
    85   44   45 1    
    86   44  110 1    
    87   45   46 1    
    88   45   47 1    
    89   45  111 1    
    90   46  112 1    
    91   46  113 1    
    92   46  114 1    
    93   47   48 2    
    94   47   49 am   BACKBONE|DICT|INTERRES
    95   49   50 1    
    96   49  115 1    
    97   50   51 1    
    98   50   52 1    
    99   50  116 1    
   100   51  117 1    
   101   51  118 1    
   102   51  119 1    
   103   52   53 2    
   104   52   54 am   BACKBONE|DICT|INTERRES
   105   54   55 1    
   106   54  120 1    
   107   55   56 1    
   108   55   57 1    
   109   55  121 1    
   110   56  122 1    
   111   56  123 1    
   112   56  124 1    
   113   57   58 2    
   114   57   59 am   BACKBONE|DICT|INTERRES
   115   59   60 1    
   116   59  125 1    
   117   60   61 1    
   118   60   62 1    
   119   60  126 1    
   120   61  127 1    
   121   61  128 1    
   122   61  129 1    
   123   62   63 2    
   124   62   64 am   BACKBONE|DICT|INTERRES
   125   64   65 1    
   126   64  130 1    
   127   65   66 1    
   128   65   69 1    
   129   65  131 1    
   130   66   67 am   BACKBONE|DICT|INTERRES
   131   66   68 2    
   132   67  132 1    
   133   67  133 1    
   134   69   70 1    
   135   69  134 1    
   136   69  135 1    
   137   70   71 1    
   138   71  136 1    
   139   71  137 1    
@<TRIPOS>SUBSTRUCTURE
     1 UNK         1 GROUP             0       ****    0 ROOT    
