@<TRIPOS>MOLECULE
3R137
137   139    1
SMALL
USER_CHARGES


@<TRIPOS>ATOM
      1 CA         24.4933   -3.8422    1.6835 C.3       0 UNK        -0.2020 
      2 C          25.0747   -2.9939    0.5634 C.2       0 UNK         0.4855 
      3 O          24.5360   -2.9887   -0.5431 O.2       0 UNK        -0.5197 
      4 N          26.1508   -2.2461    0.8471 N.am      1 UNK        -0.4892 
      5 CA         26.9555   -1.4195   -0.0769 C.3       1 UNK         0.0835 
      6 C6         27.5664   -2.2252   -1.2609 C.3       12 UNK        -0.0855 
      7 S7         28.4766   -3.7155   -0.7328 S.3       12 UNK        -0.2931 
      8 C8         30.2056   -3.1408   -0.8039 C.3       12 UNK         0.0378 
      9 C9         30.7897   -3.0467   -2.2133 C.ar      12 UNK        -0.0802 
     10 C10        31.7017   -2.0267   -2.5046 C.ar      12 UNK        -0.0944 
     11 C11        32.3371   -1.9728   -3.7481 C.ar      12 UNK        -0.0787 
     12 C12        32.0422   -2.9373   -4.7146 C.ar      12 UNK        -0.0862 
     13 C13        31.1197   -3.9523   -4.4494 C.ar      12 UNK        -0.0733 
     14 C14        30.5011   -4.0050   -3.1951 C.ar      12 UNK        -0.0832 
     15 C15        30.8411   -5.0242   -5.4969 C.3       12 UNK         0.0240 
     16 S16        30.2566   -4.3371   -7.0811 S.3       12 UNK        -0.2522 
     17 C17        28.5792   -3.7856   -6.6346 C.3       12 UNK        -0.0967 
     18 CA         28.0945   -2.5791   -7.4784 C.3       5 UNK         0.0660 
     19 N          26.6305   -2.4895   -7.4574 N.am      5 UNK        -0.4015 
     20 C          25.8927   -1.5779   -8.1055 C.2       4 UNK         0.4946 
     21 O          26.3597   -0.7064   -8.8347 O.2       4 UNK        -0.5353 
     22 CA         24.3732   -1.6108   -7.8759 C.3       4 UNK         0.0277 
     23 CB         23.7096   -2.5697   -8.8774 C.3       4 UNK        -0.1981 
     24 N          23.9380   -1.9518   -6.5151 N.am      4 UNK        -0.4209 
     25 C          24.4009   -1.4591   -5.3555 C.2       3 UNK         0.4942 
     26 O          25.3738   -0.7050   -5.2539 O.2       3 UNK        -0.5208 
     27 CA         23.6638   -1.9628   -4.1015 C.3       3 UNK         0.0250 
     28 CB         24.0381   -3.4288   -3.8191 C.3       3 UNK        -0.1990 
     29 N          23.9344   -1.1766   -2.8970 N.am      3 UNK        -0.4232 
     30 C          23.6341    0.1188   -2.7043 C.2       2 UNK         0.4993 
     31 O          23.0366    0.8119   -3.5287 O.2       2 UNK        -0.5286 
     32 CA         24.0359    0.7467   -1.3528 C.3       2 UNK         0.0209 
     33 CB         22.7884    1.0756   -0.5152 C.3       2 UNK        -0.1931 
     34 N          24.8960   -0.1519   -0.5813 N.am      2 UNK        -0.4546 
     35 C          26.2327   -0.1630   -0.6192 C.2       1 UNK         0.5154 
     36 O          26.9009    0.7612   -1.0811 O.2       1 UNK        -0.5181 
     37 C          28.7738   -1.2604   -7.0442 C.2       5 UNK         0.5014 
     38 O          29.6713   -0.7719   -7.7347 O.2       5 UNK        -0.5248 
     39 N          28.2947   -0.6826   -5.9361 N.am      6 UNK        -0.4434 
     40 CA         28.7727    0.5967   -5.4232 C.3       6 UNK         0.0363 
     41 CB         28.5718    0.6445   -3.9043 C.3       6 UNK        -0.1936 
     42 C          28.0735    1.7776   -6.1080 C.2       6 UNK         0.5081 
     43 O          28.7374    2.7679   -6.4105 O.2       6 UNK        -0.5248 
     44 N          26.7605    1.6598   -6.3582 N.am      7 UNK        -0.4718 
     45 CA         25.9372    2.7250   -6.9427 C.3       7 UNK         0.0273 
     46 CB         24.4508    2.3541   -6.8417 C.3       7 UNK        -0.1935 
     47 C          26.3193    3.0874   -8.3894 C.2       7 UNK         0.5018 
     48 O          26.3142    4.2712   -8.7289 O.2       7 UNK        -0.5186 
     49 N          26.6747    2.0831   -9.2041 N.am      8 UNK        -0.4240 
     50 CA         27.1999    2.2673  -10.5621 C.3       8 UNK         0.0235 
     51 CB         26.8219    1.0514  -11.4259 C.3       8 UNK        -0.2000 
     52 C          28.7241    2.4913  -10.5869 C.2       8 UNK         0.4941 
     53 O          29.2667    2.7319  -11.6662 O.2       8 UNK        -0.5273 
     54 N          29.3816    2.4058   -9.4193 N.am      9 UNK        -0.4262 
     55 CA         30.8196    2.5581   -9.1841 C.3       9 UNK         0.0264 
     56 CB         31.2620    4.0163   -9.4298 C.3       9 UNK        -0.1955 
     57 C          31.6622    1.5291   -9.9601 C.2       9 UNK         0.5031 
     58 O          32.5809    1.9050  -10.6911 O.2       9 UNK        -0.5390 
     59 N          31.3527    0.2390   -9.7644 N.am      10 UNK        -0.4204 
     60 CA         32.1402   -0.8859  -10.2846 C.3       10 UNK         0.0237 
     61 CB         31.2476   -2.1361  -10.3590 C.3       10 UNK        -0.1985 
     62 C          33.4074   -1.1631   -9.4480 C.2       10 UNK         0.4970 
     63 O          34.2276   -1.9859   -9.8569 O.2       10 UNK        -0.4914 
     64 N          33.5323   -0.4850   -8.2993 N.am      11 UNK        -0.4285 
     65 CA         34.6571   -0.5017   -7.3559 C.3       11 UNK         0.1007 
     66 C          36.0354   -0.2341   -8.0220 C.2       11 UNK         0.5703 
     67 N          37.0701   -0.9628   -7.6253 N.am      11 UNK        -0.7361 
     68 O          36.1818    0.6579   -8.8557 O.2       11 UNK        -0.4986 
     69 C69        34.4166    0.5162   -6.2079 C.3       12 UNK        -0.0947 
     70 S70        32.8407    0.2365   -5.3324 S.3       12 UNK        -0.2240 
     71 C71        33.3881   -0.9135   -4.0358 C.3       12 UNK         0.0194 
     72 H72        24.5095   -4.8942    1.4002 H         1 UNK         0.0906 
     73 H73        23.4591   -3.5561    1.8732 H         1 UNK         0.0906 
     74 H74        25.0528   -3.7324    2.6122 H         1 UNK         0.0906 
     75 H75        26.5115   -2.2749    1.7913 H         1 UNK         0.3140 
     76 H76        27.7861   -1.0403    0.5209 H         1 UNK         0.1085 
     77 H77        28.2382   -1.5957   -1.8459 H         1 UNK         0.0836 
     78 H78        26.7854   -2.5437   -1.9531 H         1 UNK         0.0836 
     79 H79        30.2743   -2.1792   -0.2924 H         1 UNK         0.0731 
     80 H80        30.8202   -3.8359   -0.2305 H         1 UNK         0.0731 
     81 H81        31.9465   -1.2932   -1.7485 H         1 UNK         0.1312 
     82 H82        32.5385   -2.9014   -5.6751 H         1 UNK         0.1406 
     83 H83        29.8138   -4.8097   -2.9729 H         1 UNK         0.1631 
     84 H84        30.1112   -5.7494   -5.1335 H         1 UNK         0.0717 
     85 H85        31.7614   -5.5809   -5.6780 H         1 UNK         0.0717 
     86 H86        27.9229   -4.6429   -6.7930 H         1 UNK         0.0934 
     87 H87        28.5253   -3.5640   -5.5667 H         1 UNK         0.0934 
     88 H88        28.3701   -2.7538   -8.5208 H         1 UNK         0.0739 
     89 H89        26.1461   -3.1565   -6.8759 H         1 UNK         0.3093 
     90 H90        23.9963   -0.6108   -8.0860 H         1 UNK         0.0818 
     91 H91        24.0013   -2.3292   -9.9011 H         1 UNK         0.0819 
     92 H92        23.9920   -3.6071   -8.6937 H         1 UNK         0.0819 
     93 H93        22.6223   -2.5038   -8.8319 H         1 UNK         0.0819 
     94 H94        23.1506   -2.5826   -6.4644 H         1 UNK         0.3041 
     95 H95        22.5909   -1.9026   -4.2951 H         1 UNK         0.0784 
     96 H96        23.8159   -4.0735   -4.6702 H         1 UNK         0.0793 
     97 H97        25.1002   -3.5372   -3.5954 H         1 UNK         0.0793 
     98 H98        23.4788   -3.8224   -2.9698 H         1 UNK         0.0793 
     99 H99        24.3772   -1.6818   -2.1382 H         1 UNK         0.3024 
    100 H100       24.5657    1.6771   -1.5701 H         1 UNK         0.1171 
    101 H101       22.2072    0.1811   -0.2871 H         1 UNK         0.0786 
    102 H102       23.0592    1.5499    0.4283 H         1 UNK         0.0786 
    103 H103       22.1313    1.7656   -1.0465 H         1 UNK         0.0786 
    104 H104       24.4539   -0.9812   -0.2018 H         1 UNK         0.2977 
    105 H105       27.4726   -1.0728   -5.4907 H         1 UNK         0.3127 
    106 H106       29.8435    0.6865   -5.6184 H         1 UNK         0.0770 
    107 H107       28.8646    1.6132   -3.4974 H         1 UNK         0.0814 
    108 H108       27.5288    0.4763   -3.6340 H         1 UNK         0.0814 
    109 H109       29.1802   -0.1107   -3.4074 H         1 UNK         0.0814 
    110 H110       26.2796    0.8156   -6.0574 H         1 UNK         0.2983 
    111 H111       26.0959    3.6194   -6.3360 H         1 UNK         0.0947 
    112 H112       24.2052    1.5031   -7.4726 H         1 UNK         0.0806 
    113 H113       23.8210    3.1855   -7.1610 H         1 UNK         0.0806 
    114 H114       24.1686    2.1070   -5.8178 H         1 UNK         0.0806 
    115 H115       26.6179    1.1201   -8.8738 H         1 UNK         0.3000 
    116 H116       26.7352    3.1497  -11.0072 H         1 UNK         0.0850 
    117 H117       27.0774    1.2225  -12.4724 H         1 UNK         0.0810 
    118 H118       25.7521    0.8469  -11.3822 H         1 UNK         0.0810 
    119 H119       27.3501    0.1516  -11.1083 H         1 UNK         0.0810 
    120 H120       28.8317    2.2331   -8.5872 H         1 UNK         0.3040 
    121 H121       30.9780    2.3449   -8.1255 H         1 UNK         0.0766 
    122 H122       31.1559    4.3031  -10.4765 H         1 UNK         0.0812 
    123 H123       32.3093    4.1566   -9.1593 H         1 UNK         0.0812 
    124 H124       30.6766    4.7129   -8.8296 H         1 UNK         0.0812 
    125 H125       30.6079   -0.0050   -9.1099 H         1 UNK         0.3205 
    126 H126       32.4666   -0.6446  -11.2984 H         1 UNK         0.0754 
    127 H127       31.7757   -2.9659  -10.8304 H         1 UNK         0.0769 
    128 H128       30.3472   -1.9492  -10.9446 H         1 UNK         0.0769 
    129 H129       30.9405   -2.4698   -9.3680 H         1 UNK         0.0769 
    130 H130       32.7811    0.1375   -8.0470 H         1 UNK         0.2981 
    131 H131       34.6802   -1.5047   -6.9261 H         1 UNK         0.0541 
    132 H132       37.9750   -0.7903   -8.0349 H         1 UNK         0.3459 
    133 H133       36.9650   -1.6877   -6.9326 H         1 UNK         0.3459 
    134 H134       34.3988    1.5341   -6.6022 H         1 UNK         0.0612 
    135 H135       35.2342    0.4889   -5.4849 H         1 UNK         0.0612 
    136 H136       34.3060   -1.4173   -4.3416 H         1 UNK         0.0624 
    137 H137       33.6331   -0.3439   -3.1382 H         1 UNK         0.0624 
@<TRIPOS>BOND
     1    1    2 1    
     2    1   72 1    
     3    1   73 1    
     4    1   74 1    
     5    2    3 2    
     6    2    4 am   BACKBONE|DICT|INTERRES
     7    4    5 1    
     8    4   75 1    
     9    5    6 1    
    10    5   35 1    
    11    5   76 1    
    12    6    7 1    
    13    6   77 1    
    14    6   78 1    
    15    7    8 1    
    16    8    9 1    
    17    8   79 1    
    18    8   80 1    
    19    9   10 ar   
    20    9   14 ar   
    21   10   11 ar   
    22   10   81 1    
    23   11   12 ar   
    24   11   71 1    
    25   12   13 ar   
    26   12   82 1    
    27   13   14 ar   
    28   13   15 1    
    29   14   83 1    
    30   15   16 1    
    31   15   84 1    
    32   15   85 1    
    33   16   17 1    
    34   17   18 1    
    35   17   86 1    
    36   17   87 1    
    37   18   19 1    
    38   18   37 1    
    39   18   88 1    
    40   19   20 am   BACKBONE|DICT|INTERRES
    41   19   89 1    
    42   20   21 2    
    43   20   22 1    
    44   22   23 1    
    45   22   24 1    
    46   22   90 1    
    47   23   91 1    
    48   23   92 1    
    49   23   93 1    
    50   24   25 am   BACKBONE|DICT|INTERRES
    51   24   94 1    
    52   25   26 2    
    53   25   27 1    
    54   27   28 1    
    55   27   29 1    
    56   27   95 1    
    57   28   96 1    
    58   28   97 1    
    59   28   98 1    
    60   29   30 am   BACKBONE|DICT|INTERRES
    61   29   99 1    
    62   30   31 2    
    63   30   32 1    
    64   32   33 1    
    65   32   34 1    
    66   32  100 1    
    67   33  101 1    
    68   33  102 1    
    69   33  103 1    
    70   34   35 am   BACKBONE|DICT|INTERRES
    71   34  104 1    
    72   35   36 2    
    73   37   38 2    
    74   37   39 am   BACKBONE|DICT|INTERRES
    75   39   40 1    
    76   39  105 1    
    77   40   41 1    
    78   40   42 1    
    79   40  106 1    
    80   41  107 1    
    81   41  108 1    
    82   41  109 1    
    83   42   43 2    
    84   42   44 am   BACKBONE|DICT|INTERRES
    85   44   45 1    
    86   44  110 1    
    87   45   46 1    
    88   45   47 1    
    89   45  111 1    
    90   46  112 1    
    91   46  113 1    
    92   46  114 1    
    93   47   48 2    
    94   47   49 am   BACKBONE|DICT|INTERRES
    95   49   50 1    
    96   49  115 1    
    97   50   51 1    
    98   50   52 1    
    99   50  116 1    
   100   51  117 1    
   101   51  118 1    
   102   51  119 1    
   103   52   53 2    
   104   52   54 am   BACKBONE|DICT|INTERRES
   105   54   55 1    
   106   54  120 1    
   107   55   56 1    
   108   55   57 1    
   109   55  121 1    
   110   56  122 1    
   111   56  123 1    
   112   56  124 1    
   113   57   58 2    
   114   57   59 am   BACKBONE|DICT|INTERRES
   115   59   60 1    
   116   59  125 1    
   117   60   61 1    
   118   60   62 1    
   119   60  126 1    
   120   61  127 1    
   121   61  128 1    
   122   61  129 1    
   123   62   63 2    
   124   62   64 am   BACKBONE|DICT|INTERRES
   125   64   65 1    
   126   64  130 1    
   127   65   66 1    
   128   65   69 1    
   129   65  131 1    
   130   66   67 am   BACKBONE|DICT|INTERRES
   131   66   68 2    
   132   67  132 1    
   133   67  133 1    
   134   69   70 1    
   135   69  134 1    
   136   69  135 1    
   137   70   71 1    
   138   71  136 1    
   139   71  137 1    
@<TRIPOS>SUBSTRUCTURE
     1 UNK         1 GROUP             0       ****    0 ROOT    
