@<TRIPOS>MOLECULE
3R137
137   139    1
SMALL
USER_CHARGES


@<TRIPOS>ATOM
      1 CA         29.8165   -3.6900   -3.9451 C.3       0 UNK        -0.2020 
      2 C          29.4788   -4.5341   -2.7282 C.2       0 UNK         0.4855 
      3 O          29.3481   -5.7523   -2.8484 O.2       0 UNK        -0.5197 
      4 N          29.3425   -3.8994   -1.5564 N.am      1 UNK        -0.4892 
      5 CA         29.0226   -4.5572   -0.2807 C.3       1 UNK         0.0835 
      6 C6         29.2501   -3.6342    0.9435 C.3       12 UNK        -0.0855 
      7 S7         30.8971   -2.8462    0.9710 S.3       12 UNK        -0.2931 
      8 C8         30.4658   -1.0817    0.8219 C.3       12 UNK         0.0378 
      9 C9         30.0671   -0.7040   -0.5984 C.ar      12 UNK        -0.0802 
     10 C10        31.0471   -0.3211   -1.5188 C.ar      12 UNK        -0.0944 
     11 C11        30.6943    0.0665   -2.8146 C.ar      12 UNK        -0.0787 
     12 C12        29.3476    0.0656   -3.1884 C.ar      12 UNK        -0.0862 
     13 C13        28.3593   -0.3509   -2.2898 C.ar      12 UNK        -0.0733 
     14 C14        28.7241   -0.7160   -0.9901 C.ar      12 UNK        -0.0832 
     15 C15        26.8983   -0.4109   -2.7164 C.3       12 UNK         0.0240 
     16 S16        26.5924   -1.7953   -3.8640 S.3       12 UNK        -0.2522 
     17 C17        26.9886   -1.0275   -5.4758 C.3       12 UNK        -0.0967 
     18 CA         25.9304   -1.3063   -6.5758 C.3       5 UNK         0.0660 
     19 N          24.5735   -1.0115   -6.1095 N.am      5 UNK        -0.4015 
     20 C          23.4346   -1.3627   -6.7204 C.2       4 UNK         0.4946 
     21 O          23.3861   -1.9852   -7.7841 O.2       4 UNK        -0.5353 
     22 CA         22.1359   -0.9673   -5.9844 C.3       4 UNK         0.0277 
     23 CB         20.8742   -1.6272   -6.5829 C.3       4 UNK        -0.1981 
     24 N          22.2193   -1.2038   -4.5334 N.am      4 UNK        -0.4209 
     25 C          22.4417   -2.3801   -3.9272 C.2       3 UNK         0.4942 
     26 O          22.5145   -3.4649   -4.5123 O.2       3 UNK        -0.5208 
     27 CA         22.6167   -2.3374   -2.4046 C.3       3 UNK         0.0250 
     28 CB         21.2563   -2.3804   -1.6883 C.3       3 UNK        -0.1990 
     29 N          23.4074   -3.5017   -2.0192 N.am      3 UNK        -0.4232 
     30 C          24.4543   -3.5013   -1.1897 C.2       2 UNK         0.4993 
     31 O          24.8068   -2.5188   -0.5327 O.2       2 UNK        -0.5286 
     32 CA         25.2559   -4.8087   -1.0773 C.3       2 UNK         0.0209 
     33 CB         25.0327   -5.7970   -2.2433 C.3       2 UNK        -0.1931 
     34 N          26.6741   -4.4753   -0.9900 N.am      2 UNK        -0.4546 
     35 C          27.5842   -5.1168   -0.2483 C.2       1 UNK         0.5154 
     36 O          27.3306   -6.1026    0.4465 O.2       1 UNK        -0.5181 
     37 C          26.2753   -0.5006   -7.8457 C.2       5 UNK         0.5014 
     38 O          25.6724    0.5476   -8.0977 O.2       5 UNK        -0.5248 
     39 N          27.2948   -0.9578   -8.5860 N.am      6 UNK        -0.4434 
     40 CA         27.8593   -0.2825   -9.7603 C.3       6 UNK         0.0363 
     41 CB         28.6547   -1.3041  -10.5948 C.3       6 UNK        -0.1936 
     42 C          28.7106    0.9445   -9.3731 C.2       6 UNK         0.5081 
     43 O          29.9072    0.9898   -9.6646 O.2       6 UNK        -0.5248 
     44 N          28.0849    1.9263   -8.7120 N.am      7 UNK        -0.4718 
     45 CA         28.7067    3.1569   -8.2085 C.3       7 UNK         0.0273 
     46 CB         27.6647    3.9701   -7.4260 C.3       7 UNK        -0.1935 
     47 C          29.3611    4.0190   -9.3021 C.2       7 UNK         0.5018 
     48 O          30.3789    4.6576   -9.0359 O.2       7 UNK        -0.5186 
     49 N          28.8188    3.9618  -10.5273 N.am      8 UNK        -0.4240 
     50 CA         29.3850    4.5798  -11.7320 C.3       8 UNK         0.0235 
     51 CB         28.3867    4.4294  -12.8913 C.3       8 UNK        -0.2000 
     52 C          30.7635    4.0163  -12.1343 C.2       8 UNK         0.4941 
     53 O          31.5302    4.7231  -12.7889 O.2       8 UNK        -0.5273 
     54 N          31.0603    2.7764  -11.7214 N.am      9 UNK        -0.4262 
     55 CA         32.3521    2.1075  -11.8822 C.3       9 UNK         0.0264 
     56 CB         32.1052    0.7145  -12.4909 C.3       9 UNK        -0.1955 
     57 C          33.0998    2.0010  -10.5381 C.2       9 UNK         0.5031 
     58 O          34.0335    1.2026  -10.4358 O.2       9 UNK        -0.5390 
     59 N          32.6606    2.7610   -9.5187 N.am      10 UNK        -0.4204 
     60 CA         33.1429    2.7588   -8.1303 C.3       10 UNK         0.0237 
     61 CB         34.5372    3.4159   -8.0473 C.3       10 UNK        -0.1985 
     62 C          33.0955    1.3635   -7.4718 C.2       10 UNK         0.4970 
     63 O          33.9945    1.0277   -6.7010 O.2       10 UNK        -0.4914 
     64 N          32.0681    0.5789   -7.8312 N.am      11 UNK        -0.4285 
     65 CA         31.8600   -0.8442   -7.5200 C.3       11 UNK         0.1007 
     66 C          32.9921   -1.8198   -7.9693 C.2       11 UNK         0.5703 
     67 N          33.8847   -1.4287   -8.8730 N.am      11 UNK        -0.7361 
     68 O          33.0347   -2.9689   -7.5361 O.2       11 UNK        -0.4986 
     69 C69        31.2717   -1.1045   -6.1015 C.3       12 UNK        -0.0947 
     70 S70        32.4390   -0.9521   -4.7043 S.3       12 UNK        -0.2240 
     71 C71        31.7730    0.4830   -3.8045 C.3       12 UNK         0.0194 
     72 H72        29.9311   -2.6389   -3.6873 H         1 UNK         0.0906 
     73 H73        30.7497   -4.0313   -4.3924 H         1 UNK         0.0906 
     74 H74        29.0268   -3.7723   -4.6912 H         1 UNK         0.0906 
     75 H75        29.5050   -2.9018   -1.5049 H         1 UNK         0.3140 
     76 H76        29.6955   -5.4121   -0.1821 H         1 UNK         0.1085 
     77 H77        29.1529   -4.2135    1.8640 H         1 UNK         0.0836 
     78 H78        28.4758   -2.8683    1.0017 H         1 UNK         0.0836 
     79 H79        31.3285   -0.4873    1.1274 H         1 UNK         0.0731 
     80 H80        29.6695   -0.8324    1.5251 H         1 UNK         0.0731 
     81 H81        32.0880   -0.3201   -1.2244 H         1 UNK         0.1312 
     82 H82        29.0744    0.3713   -4.1868 H         1 UNK         0.1406 
     83 H83        27.9589   -1.0093   -0.2841 H         1 UNK         0.1631 
     84 H84        26.5968    0.5374   -3.1627 H         1 UNK         0.0717 
     85 H85        26.2559   -0.5450   -1.8448 H         1 UNK         0.0717 
     86 H86        27.1025    0.0498   -5.3424 H         1 UNK         0.0934 
     87 H87        27.9679   -1.3979   -5.7842 H         1 UNK         0.0934 
     88 H88        25.9631   -2.3683   -6.8291 H         1 UNK         0.0739 
     89 H89        24.5131   -0.5028   -5.2413 H         1 UNK         0.3093 
     90 H90        22.0328    0.1110   -6.1162 H         1 UNK         0.0818 
     91 H91        20.7478   -1.3480   -7.6296 H         1 UNK         0.0819 
     92 H92        20.9262   -2.7156   -6.5428 H         1 UNK         0.0819 
     93 H93        19.9739   -1.3146   -6.0541 H         1 UNK         0.0819 
     94 H94        22.1539   -0.3769   -3.9550 H         1 UNK         0.3041 
     95 H95        23.1433   -1.4174   -2.1406 H         1 UNK         0.0784 
     96 H96        20.6432   -1.5191   -1.9564 H         1 UNK         0.0793 
     97 H97        20.6922   -3.2774   -1.9474 H         1 UNK         0.0793 
     98 H98        21.3806   -2.3650   -0.6053 H         1 UNK         0.0793 
     99 H99        23.2365   -4.3192   -2.5913 H         1 UNK         0.3024 
    100 H100       24.9361   -5.2850   -0.1476 H         1 UNK         0.1171 
    101 H101       25.2660   -5.3430   -3.2078 H         1 UNK         0.0786 
    102 H102       25.6643   -6.6792   -2.1354 H         1 UNK         0.0786 
    103 H103       24.0022   -6.1523   -2.2773 H         1 UNK         0.0786 
    104 H104       26.9605   -3.6484   -1.4968 H         1 UNK         0.2977 
    105 H105       27.7535   -1.8120   -8.3032 H         1 UNK         0.3127 
    106 H106       27.0372    0.0814  -10.3803 H         1 UNK         0.0770 
    107 H107       29.4958   -1.7188  -10.0385 H         1 UNK         0.0814 
    108 H108       29.0585   -0.8413  -11.4964 H         1 UNK         0.0814 
    109 H109       28.0230   -2.1324  -10.9158 H         1 UNK         0.0814 
    110 H110       27.1040    1.7758   -8.4881 H         1 UNK         0.2983 
    111 H111       29.4985    2.8613   -7.5168 H         1 UNK         0.0947 
    112 H112       28.1054    4.8807   -7.0175 H         1 UNK         0.0806 
    113 H113       27.2659    3.4001   -6.5865 H         1 UNK         0.0806 
    114 H114       26.8267    4.2672   -8.0579 H         1 UNK         0.0806 
    115 H115       27.9831    3.4078  -10.6473 H         1 UNK         0.3000 
    116 H116       29.5176    5.6443  -11.5271 H         1 UNK         0.0850 
    117 H117       28.1979    3.3816  -13.1291 H         1 UNK         0.0810 
    118 H118       28.7659    4.9053  -13.7969 H         1 UNK         0.0810 
    119 H119       27.4314    4.8997  -12.6574 H         1 UNK         0.0810 
    120 H120       30.3842    2.2705  -11.1578 H         1 UNK         0.3040 
    121 H121       32.9937    2.6710  -12.5624 H         1 UNK         0.0766 
    122 H122       31.5294    0.0782  -11.8174 H         1 UNK         0.0812 
    123 H123       31.5621    0.7839  -13.4334 H         1 UNK         0.0812 
    124 H124       33.0458    0.2027  -12.6986 H         1 UNK         0.0812 
    125 H125       31.8851    3.3910   -9.6943 H         1 UNK         0.3205 
    126 H126       32.4496    3.3821   -7.5638 H         1 UNK         0.0754 
    127 H127       34.8551    3.5339   -7.0106 H         1 UNK         0.0769 
    128 H128       34.5347    4.4083   -8.4981 H         1 UNK         0.0769 
    129 H129       35.2952    2.8185   -8.5551 H         1 UNK         0.0769 
    130 H130       31.4048    0.9451   -8.5085 H         1 UNK         0.2981 
    131 H131       31.0526   -1.1136   -8.2007 H         1 UNK         0.0541 
    132 H132       34.5990   -2.0753   -9.1661 H         1 UNK         0.3459 
    133 H133       33.8633   -0.4930   -9.2631 H         1 UNK         0.3459 
    134 H134       30.8583   -2.1126   -6.0675 H         1 UNK         0.0612 
    135 H135       30.4204   -0.4438   -5.9405 H         1 UNK         0.0612 
    136 H136       32.5924    0.9673   -3.2715 H         1 UNK         0.0624 
    137 H137       31.3924    1.2240   -4.5091 H         1 UNK         0.0624 
@<TRIPOS>BOND
     1    1    2 1    
     2    1   72 1    
     3    1   73 1    
     4    1   74 1    
     5    2    3 2    
     6    2    4 am   BACKBONE|DICT|INTERRES
     7    4    5 1    
     8    4   75 1    
     9    5    6 1    
    10    5   35 1    
    11    5   76 1    
    12    6    7 1    
    13    6   77 1    
    14    6   78 1    
    15    7    8 1    
    16    8    9 1    
    17    8   79 1    
    18    8   80 1    
    19    9   10 ar   
    20    9   14 ar   
    21   10   11 ar   
    22   10   81 1    
    23   11   12 ar   
    24   11   71 1    
    25   12   13 ar   
    26   12   82 1    
    27   13   14 ar   
    28   13   15 1    
    29   14   83 1    
    30   15   16 1    
    31   15   84 1    
    32   15   85 1    
    33   16   17 1    
    34   17   18 1    
    35   17   86 1    
    36   17   87 1    
    37   18   19 1    
    38   18   37 1    
    39   18   88 1    
    40   19   20 am   BACKBONE|DICT|INTERRES
    41   19   89 1    
    42   20   21 2    
    43   20   22 1    
    44   22   23 1    
    45   22   24 1    
    46   22   90 1    
    47   23   91 1    
    48   23   92 1    
    49   23   93 1    
    50   24   25 am   BACKBONE|DICT|INTERRES
    51   24   94 1    
    52   25   26 2    
    53   25   27 1    
    54   27   28 1    
    55   27   29 1    
    56   27   95 1    
    57   28   96 1    
    58   28   97 1    
    59   28   98 1    
    60   29   30 am   BACKBONE|DICT|INTERRES
    61   29   99 1    
    62   30   31 2    
    63   30   32 1    
    64   32   33 1    
    65   32   34 1    
    66   32  100 1    
    67   33  101 1    
    68   33  102 1    
    69   33  103 1    
    70   34   35 am   BACKBONE|DICT|INTERRES
    71   34  104 1    
    72   35   36 2    
    73   37   38 2    
    74   37   39 am   BACKBONE|DICT|INTERRES
    75   39   40 1    
    76   39  105 1    
    77   40   41 1    
    78   40   42 1    
    79   40  106 1    
    80   41  107 1    
    81   41  108 1    
    82   41  109 1    
    83   42   43 2    
    84   42   44 am   BACKBONE|DICT|INTERRES
    85   44   45 1    
    86   44  110 1    
    87   45   46 1    
    88   45   47 1    
    89   45  111 1    
    90   46  112 1    
    91   46  113 1    
    92   46  114 1    
    93   47   48 2    
    94   47   49 am   BACKBONE|DICT|INTERRES
    95   49   50 1    
    96   49  115 1    
    97   50   51 1    
    98   50   52 1    
    99   50  116 1    
   100   51  117 1    
   101   51  118 1    
   102   51  119 1    
   103   52   53 2    
   104   52   54 am   BACKBONE|DICT|INTERRES
   105   54   55 1    
   106   54  120 1    
   107   55   56 1    
   108   55   57 1    
   109   55  121 1    
   110   56  122 1    
   111   56  123 1    
   112   56  124 1    
   113   57   58 2    
   114   57   59 am   BACKBONE|DICT|INTERRES
   115   59   60 1    
   116   59  125 1    
   117   60   61 1    
   118   60   62 1    
   119   60  126 1    
   120   61  127 1    
   121   61  128 1    
   122   61  129 1    
   123   62   63 2    
   124   62   64 am   BACKBONE|DICT|INTERRES
   125   64   65 1    
   126   64  130 1    
   127   65   66 1    
   128   65   69 1    
   129   65  131 1    
   130   66   67 am   BACKBONE|DICT|INTERRES
   131   66   68 2    
   132   67  132 1    
   133   67  133 1    
   134   69   70 1    
   135   69  134 1    
   136   69  135 1    
   137   70   71 1    
   138   71  136 1    
   139   71  137 1    
@<TRIPOS>SUBSTRUCTURE
     1 UNK         1 GROUP             0       ****    0 ROOT    
