@<TRIPOS>MOLECULE
3R137
137   139    1
SMALL
USER_CHARGES


@<TRIPOS>ATOM
      1 CA         24.4375   -2.8066    1.4543 C.3       0 UNK        -0.2020 
      2 C          25.5649   -2.8272    0.4329 C.2       0 UNK         0.4855 
      3 O          25.8603   -1.7982   -0.1724 O.2       0 UNK        -0.5197 
      4 N          26.2024   -3.9885    0.2428 N.am      1 UNK        -0.4892 
      5 CA         27.2457   -4.2111   -0.7619 C.3       1 UNK         0.0835 
      6 C6         28.1374   -5.4136   -0.3519 C.3       12 UNK        -0.0855 
      7 S7         29.4418   -5.9041   -1.5368 S.3       12 UNK        -0.2931 
      8 C8         30.8081   -4.7724   -1.1272 C.3       12 UNK         0.0378 
      9 C9         30.7359   -3.4916   -1.9463 C.ar      12 UNK        -0.0802 
     10 C10        31.1445   -3.4961   -3.2839 C.ar      12 UNK        -0.0944 
     11 C11        31.0994   -2.3246   -4.0449 C.ar      12 UNK        -0.0787 
     12 C12        30.6453   -1.1428   -3.4564 C.ar      12 UNK        -0.0862 
     13 C13        30.2121   -1.1269   -2.1272 C.ar      12 UNK        -0.0733 
     14 C14        30.2757   -2.3026   -1.3724 C.ar      12 UNK        -0.0832 
     15 C15        29.6869    0.1578   -1.4995 C.3       12 UNK         0.0240 
     16 S16        28.0329    0.6059   -2.1285 S.3       12 UNK        -0.2522 
     17 C17        28.4400    1.5284   -3.6493 C.3       12 UNK        -0.0967 
     18 CA         27.9757    0.7799   -4.9343 C.3       5 UNK         0.0660 
     19 N          26.5195    0.7152   -5.0845 N.am      5 UNK        -0.4015 
     20 C          25.6807    1.7495   -5.2483 C.2       4 UNK         0.4946 
     21 O          26.0586    2.9200   -5.3306 O.2       4 UNK        -0.5353 
     22 CA         24.1698    1.4529   -5.3549 C.3       4 UNK         0.0277 
     23 CB         23.5575    2.1165   -6.6007 C.3       4 UNK        -0.1981 
     24 N          23.8517    0.0229   -5.3727 N.am      4 UNK        -0.4209 
     25 C          23.6928   -0.7500   -4.2895 C.2       3 UNK         0.4942 
     26 O          23.7592   -0.3333   -3.1333 O.2       3 UNK        -0.5208 
     27 CA         23.4244   -2.2484   -4.5347 C.3       3 UNK         0.0250 
     28 CB         22.7919   -2.5472   -5.9139 C.3       3 UNK        -0.1990 
     29 N          24.6249   -3.0701   -4.3382 N.am      3 UNK        -0.4232 
     30 C          25.8127   -2.9311   -4.9436 C.2       2 UNK         0.4993 
     31 O          26.0725   -2.0250   -5.7350 O.2       2 UNK        -0.5286 
     32 CA         26.8932   -3.9703   -4.5964 C.3       2 UNK         0.0209 
     33 CB         28.1423   -3.8305   -5.4862 C.3       2 UNK        -0.1931 
     34 N          27.3018   -3.8828   -3.1942 N.am      2 UNK        -0.4546 
     35 C          26.6060   -4.3671   -2.1577 C.2       1 UNK         0.5154 
     36 O          25.5124   -4.9294   -2.2764 O.2       1 UNK        -0.5181 
     37 C          28.6110    1.2948   -6.2405 C.2       5 UNK         0.5014 
     38 O          28.4265    0.6555   -7.2766 O.2       5 UNK        -0.5248 
     39 N          29.3242    2.4300   -6.1888 N.am      6 UNK        -0.4434 
     40 CA         30.0529    3.0423   -7.3067 C.3       6 UNK         0.0363 
     41 CB         30.8013    4.2823   -6.7918 C.3       6 UNK        -0.1936 
     42 C          29.1872    3.4086   -8.5288 C.2       6 UNK         0.5081 
     43 O          29.7236    3.5475   -9.6281 O.2       6 UNK        -0.5248 
     44 N          27.8729    3.5656   -8.3238 N.am      7 UNK        -0.4718 
     45 CA         26.8965    3.8081   -9.3860 C.3       7 UNK         0.0273 
     46 CB         25.7150    4.5958   -8.7979 C.3       7 UNK        -0.1935 
     47 C          26.4070    2.5177  -10.0730 C.2       7 UNK         0.5018 
     48 O          25.7851    2.6203  -11.1315 O.2       7 UNK        -0.5186 
     49 N          26.6633    1.3444   -9.4751 N.am      8 UNK        -0.4240 
     50 CA         26.2105    0.0401   -9.9688 C.3       8 UNK         0.0235 
     51 CB         25.3860   -0.6569   -8.8744 C.3       8 UNK        -0.2000 
     52 C          27.3735   -0.8612  -10.4091 C.2       8 UNK         0.4941 
     53 O          27.2227   -1.5837  -11.3956 O.2       8 UNK        -0.5273 
     54 N          28.4970   -0.8209   -9.6846 N.am      9 UNK        -0.4262 
     55 CA         29.6923   -1.6259   -9.9291 C.3       9 UNK         0.0264 
     56 CB         29.7483   -2.7549   -8.8863 C.3       9 UNK        -0.1955 
     57 C          30.9381   -0.7353   -9.8568 C.2       9 UNK         0.5031 
     58 O          30.8831    0.3590   -9.2939 O.2       9 UNK        -0.5390 
     59 N          32.0539   -1.2200  -10.4162 N.am      10 UNK        -0.4204 
     60 CA         33.3242   -0.4984  -10.5753 C.3       10 UNK         0.0237 
     61 CB         34.1505   -1.1953  -11.6741 C.3       10 UNK        -0.1985 
     62 C          34.1277   -0.2966   -9.2687 C.2       10 UNK         0.4970 
     63 O          35.3437   -0.4984   -9.2627 O.2       10 UNK        -0.4914 
     64 N          33.4448    0.1157   -8.1968 N.am      11 UNK        -0.4285 
     65 CA         34.0292    0.4934   -6.8989 C.3       11 UNK         0.1007 
     66 C          34.2216    2.0298   -6.7390 C.2       11 UNK         0.5703 
     67 N          33.8816    2.8539   -7.7240 N.am      11 UNK        -0.7361 
     68 O          34.7085    2.4854   -5.7071 O.2       11 UNK        -0.4986 
     69 C69        33.2319   -0.1096   -5.7124 C.3       12 UNK        -0.0947 
     70 S70        33.2655   -1.9349   -5.7275 S.3       12 UNK        -0.2240 
     71 C71        31.5096   -2.3440   -5.5102 C.3       12 UNK         0.0194 
     72 H72        23.5036   -2.5146    0.9747 H         1 UNK         0.0906 
     73 H73        24.2895   -3.7809    1.9198 H         1 UNK         0.0906 
     74 H74        24.6568   -2.0849    2.2407 H         1 UNK         0.0906 
     75 H75        25.8890   -4.8111    0.7386 H         1 UNK         0.3140 
     76 H76        27.8691   -3.3181   -0.7864 H         1 UNK         0.1085 
     77 H77        28.6032   -5.2131    0.6144 H         1 UNK         0.0836 
     78 H78        27.5111   -6.2938   -0.1944 H         1 UNK         0.0836 
     79 H79        30.8158   -4.5571   -0.0577 H         1 UNK         0.0731 
     80 H80        31.7523   -5.2766   -1.3386 H         1 UNK         0.0731 
     81 H81        31.4949   -4.4153   -3.7335 H         1 UNK         0.1312 
     82 H82        30.6220   -0.2373   -4.0418 H         1 UNK         0.1406 
     83 H83        29.9653   -2.2919   -0.3361 H         1 UNK         0.1631 
     84 H84        30.3939    0.9722   -1.6628 H         1 UNK         0.0717 
     85 H85        29.6141    0.0431   -0.4169 H         1 UNK         0.0717 
     86 H86        27.9786    2.5146   -3.5783 H         1 UNK         0.0934 
     87 H87        29.5150    1.7097   -3.6594 H         1 UNK         0.0934 
     88 H88        28.3016   -0.2578   -4.8538 H         1 UNK         0.0739 
     89 H89        26.1456   -0.2282   -5.1522 H         1 UNK         0.3093 
     90 H90        23.6994    1.9010   -4.4770 H         1 UNK         0.0818 
     91 H91        22.5073    1.8506   -6.7218 H         1 UNK         0.0819 
     92 H92        23.6013    3.2028   -6.5173 H         1 UNK         0.0819 
     93 H93        24.0853    1.8379   -7.5125 H         1 UNK         0.0819 
     94 H94        23.8225   -0.4249   -6.2772 H         1 UNK         0.3041 
     95 H95        22.7085   -2.5584   -3.7717 H         1 UNK         0.0784 
     96 H96        21.9004   -1.9405   -6.0793 H         1 UNK         0.0793 
     97 H97        23.4800   -2.3611   -6.7394 H         1 UNK         0.0793 
     98 H98        22.4822   -3.5903   -5.9797 H         1 UNK         0.0793 
     99 H99        24.5553   -3.8008   -3.6357 H         1 UNK         0.3024 
    100 H100       26.4650   -4.9588   -4.7785 H         1 UNK         0.1171 
    101 H101       27.8857   -3.9547   -6.5390 H         1 UNK         0.0786 
    102 H102       28.8928   -4.5830   -5.2435 H         1 UNK         0.0786 
    103 H103       28.6014   -2.8476   -5.3794 H         1 UNK         0.0786 
    104 H104       28.1912   -3.4363   -3.0162 H         1 UNK         0.2977 
    105 H105       29.3744    2.9225   -5.3094 H         1 UNK         0.3127 
    106 H106       30.7958    2.3185   -7.6434 H         1 UNK         0.0770 
    107 H107       30.1154    5.0355   -6.4021 H         1 UNK         0.0814 
    108 H108       31.3773    4.7496   -7.5918 H         1 UNK         0.0814 
    109 H109       31.5056    4.0227   -6.0011 H         1 UNK         0.0814 
    110 H110       27.5117    3.4469   -7.3859 H         1 UNK         0.2983 
    111 H111       27.3559    4.4256  -10.1613 H         1 UNK         0.0947 
    112 H112       24.9480    4.7803   -9.5515 H         1 UNK         0.0806 
    113 H113       26.0367    5.5668   -8.4210 H         1 UNK         0.0806 
    114 H114       25.2450    4.0592   -7.9752 H         1 UNK         0.0806 
    115 H115       27.2363    1.3336   -8.6361 H         1 UNK         0.3000 
    116 H116       25.5631    0.1646  -10.8394 H         1 UNK         0.0850 
    117 H117       25.1374   -1.6812   -9.1562 H         1 UNK         0.0810 
    118 H118       25.9336   -0.7005   -7.9335 H         1 UNK         0.0810 
    119 H119       24.4457   -0.1372   -8.6982 H         1 UNK         0.0810 
    120 H120       28.5663   -0.1857   -8.8900 H         1 UNK         0.3040 
    121 H121       29.6604   -2.0628  -10.9295 H         1 UNK         0.0766 
    122 H122       29.6637   -2.3630   -7.8737 H         1 UNK         0.0812 
    123 H123       30.6796   -3.3191   -8.9485 H         1 UNK         0.0812 
    124 H124       28.9310   -3.4613   -9.0324 H         1 UNK         0.0812 
    125 H125       32.0233   -2.1485  -10.8126 H         1 UNK         0.3205 
    126 H126       33.0868    0.5039  -10.9382 H         1 UNK         0.0754 
    127 H127       35.0647   -0.6412  -11.8918 H         1 UNK         0.0769 
    128 H128       33.5923   -1.2650  -12.6081 H         1 UNK         0.0769 
    129 H129       34.4419   -2.2043  -11.3797 H         1 UNK         0.0769 
    130 H130       32.4478    0.2797   -8.3160 H         1 UNK         0.2981 
    131 H131       35.0391    0.0843   -6.8375 H         1 UNK         0.0541 
    132 H132       33.4961    2.4973   -8.5829 H         1 UNK         0.3459 
    133 H133       34.0304    3.8434   -7.6084 H         1 UNK         0.3459 
    134 H134       32.2034    0.2530   -5.7353 H         1 UNK         0.0612 
    135 H135       33.6492    0.2103   -4.7560 H         1 UNK         0.0612 
    136 H136       30.8953   -1.6495   -6.0841 H         1 UNK         0.0624 
    137 H137       31.3272   -3.3330   -5.9330 H         1 UNK         0.0624 
@<TRIPOS>BOND
     1    1    2 1    
     2    1   72 1    
     3    1   73 1    
     4    1   74 1    
     5    2    3 2    
     6    2    4 am   BACKBONE|DICT|INTERRES
     7    4    5 1    
     8    4   75 1    
     9    5    6 1    
    10    5   35 1    
    11    5   76 1    
    12    6    7 1    
    13    6   77 1    
    14    6   78 1    
    15    7    8 1    
    16    8    9 1    
    17    8   79 1    
    18    8   80 1    
    19    9   10 ar   
    20    9   14 ar   
    21   10   11 ar   
    22   10   81 1    
    23   11   12 ar   
    24   11   71 1    
    25   12   13 ar   
    26   12   82 1    
    27   13   14 ar   
    28   13   15 1    
    29   14   83 1    
    30   15   16 1    
    31   15   84 1    
    32   15   85 1    
    33   16   17 1    
    34   17   18 1    
    35   17   86 1    
    36   17   87 1    
    37   18   19 1    
    38   18   37 1    
    39   18   88 1    
    40   19   20 am   BACKBONE|DICT|INTERRES
    41   19   89 1    
    42   20   21 2    
    43   20   22 1    
    44   22   23 1    
    45   22   24 1    
    46   22   90 1    
    47   23   91 1    
    48   23   92 1    
    49   23   93 1    
    50   24   25 am   BACKBONE|DICT|INTERRES
    51   24   94 1    
    52   25   26 2    
    53   25   27 1    
    54   27   28 1    
    55   27   29 1    
    56   27   95 1    
    57   28   96 1    
    58   28   97 1    
    59   28   98 1    
    60   29   30 am   BACKBONE|DICT|INTERRES
    61   29   99 1    
    62   30   31 2    
    63   30   32 1    
    64   32   33 1    
    65   32   34 1    
    66   32  100 1    
    67   33  101 1    
    68   33  102 1    
    69   33  103 1    
    70   34   35 am   BACKBONE|DICT|INTERRES
    71   34  104 1    
    72   35   36 2    
    73   37   38 2    
    74   37   39 am   BACKBONE|DICT|INTERRES
    75   39   40 1    
    76   39  105 1    
    77   40   41 1    
    78   40   42 1    
    79   40  106 1    
    80   41  107 1    
    81   41  108 1    
    82   41  109 1    
    83   42   43 2    
    84   42   44 am   BACKBONE|DICT|INTERRES
    85   44   45 1    
    86   44  110 1    
    87   45   46 1    
    88   45   47 1    
    89   45  111 1    
    90   46  112 1    
    91   46  113 1    
    92   46  114 1    
    93   47   48 2    
    94   47   49 am   BACKBONE|DICT|INTERRES
    95   49   50 1    
    96   49  115 1    
    97   50   51 1    
    98   50   52 1    
    99   50  116 1    
   100   51  117 1    
   101   51  118 1    
   102   51  119 1    
   103   52   53 2    
   104   52   54 am   BACKBONE|DICT|INTERRES
   105   54   55 1    
   106   54  120 1    
   107   55   56 1    
   108   55   57 1    
   109   55  121 1    
   110   56  122 1    
   111   56  123 1    
   112   56  124 1    
   113   57   58 2    
   114   57   59 am   BACKBONE|DICT|INTERRES
   115   59   60 1    
   116   59  125 1    
   117   60   61 1    
   118   60   62 1    
   119   60  126 1    
   120   61  127 1    
   121   61  128 1    
   122   61  129 1    
   123   62   63 2    
   124   62   64 am   BACKBONE|DICT|INTERRES
   125   64   65 1    
   126   64  130 1    
   127   65   66 1    
   128   65   69 1    
   129   65  131 1    
   130   66   67 am   BACKBONE|DICT|INTERRES
   131   66   68 2    
   132   67  132 1    
   133   67  133 1    
   134   69   70 1    
   135   69  134 1    
   136   69  135 1    
   137   70   71 1    
   138   71  136 1    
   139   71  137 1    
@<TRIPOS>SUBSTRUCTURE
     1 UNK         1 GROUP             0       ****    0 ROOT    
