@<TRIPOS>MOLECULE
3R137
137   139    1
SMALL
USER_CHARGES


@<TRIPOS>ATOM
      1 CA         25.6106   -5.2319    1.7271 C.3       0 UNK        -0.2020 
      2 C          26.3385   -4.1342    0.9666 C.2       0 UNK         0.4855 
      3 O          26.5178   -3.0368    1.4940 O.2       0 UNK        -0.5197 
      4 N          26.7427   -4.4087   -0.2795 N.am      1 UNK        -0.4892 
      5 CA         27.5044   -3.5147   -1.1649 C.3       1 UNK         0.0835 
      6 C6         28.2839   -4.3242   -2.2357 C.3       12 UNK        -0.0855 
      7 S7         29.7015   -5.2454   -1.5464 S.3       12 UNK        -0.2931 
      8 C8         30.9499   -3.9366   -1.2561 C.3       12 UNK         0.0378 
      9 C9         31.0375   -2.9160   -2.3860 C.ar      12 UNK        -0.0802 
     10 C10        31.5108   -3.2916   -3.6457 C.ar      12 UNK        -0.0944 
     11 C11        31.5482   -2.3678   -4.6946 C.ar      12 UNK        -0.0787 
     12 C12        31.1042   -1.0581   -4.4806 C.ar      12 UNK        -0.0862 
     13 C13        30.6384   -0.6650   -3.2206 C.ar      12 UNK        -0.0733 
     14 C14        30.6196   -1.5980   -2.1772 C.ar      12 UNK        -0.0832 
     15 C15        30.1753    0.7685   -2.9772 C.3       12 UNK         0.0240 
     16 S16        28.5001    0.8249   -2.2567 S.3       12 UNK        -0.2522 
     17 C17        27.5899    1.9979   -3.3171 C.3       12 UNK        -0.0967 
     18 CA         27.5008    1.6188   -4.8191 C.3       5 UNK         0.0660 
     19 N          27.2082    0.2036   -5.0625 N.am      5 UNK        -0.4015 
     20 C          27.2805   -0.3853   -6.2660 C.2       4 UNK         0.4946 
     21 O          27.6705    0.1834   -7.2866 O.2       4 UNK        -0.5353 
     22 CA         26.7941   -1.8383   -6.3584 C.3       4 UNK         0.0277 
     23 CB         27.9255   -2.8160   -5.9995 C.3       4 UNK        -0.1981 
     24 N          25.6394   -2.0691   -5.4877 N.am      4 UNK        -0.4209 
     25 C          24.3986   -1.6302   -5.7433 C.2       3 UNK         0.4942 
     26 O          24.0874   -1.0289   -6.7707 O.2       3 UNK        -0.5208 
     27 CA         23.3291   -1.8707   -4.6615 C.3       3 UNK         0.0250 
     28 CB         22.6979   -3.2619   -4.8281 C.3       3 UNK        -0.1990 
     29 N          23.8371   -1.7245   -3.2942 N.am      3 UNK        -0.4232 
     30 C          24.2974   -0.5773   -2.7760 C.2       2 UNK         0.4993 
     31 O          24.3073    0.4913   -3.3859 O.2       2 UNK        -0.5286 
     32 CA         24.8984   -0.6341   -1.3602 C.3       2 UNK         0.0209 
     33 CB         23.7964   -0.4575   -0.3039 C.3       2 UNK        -0.1931 
     34 N          25.6879   -1.8334   -1.0418 N.am      2 UNK        -0.4546 
     35 C          26.6521   -2.3840   -1.7938 C.2       1 UNK         0.5154 
     36 O          26.8828   -2.0213   -2.9471 O.2       1 UNK        -0.5181 
     37 C          26.4926    2.5303   -5.5477 C.2       5 UNK         0.5014 
     38 O          26.9095    3.4772   -6.2144 O.2       5 UNK        -0.5248 
     39 N          25.1935    2.2064   -5.4466 N.am      6 UNK        -0.4434 
     40 CA         24.0962    2.8913   -6.1386 C.3       6 UNK         0.0363 
     41 CB         22.7501    2.3451   -5.6373 C.3       6 UNK        -0.1936 
     42 C          24.1831    2.7852   -7.6711 C.2       6 UNK         0.5081 
     43 O          23.8689    3.7541   -8.3626 O.2       6 UNK        -0.5248 
     44 N          24.6408    1.6302   -8.1740 N.am      7 UNK        -0.4718 
     45 CA         24.9370    1.3953   -9.5910 C.3       7 UNK         0.0273 
     46 CB         25.0183   -0.1201   -9.8391 C.3       7 UNK        -0.1935 
     47 C          26.2274    2.0856  -10.0779 C.2       7 UNK         0.5018 
     48 O          26.4595    2.1168  -11.2872 O.2       7 UNK        -0.5186 
     49 N          27.0394    2.6057   -9.1439 N.am      8 UNK        -0.4240 
     50 CA         28.3517    3.2302   -9.3359 C.3       8 UNK         0.0235 
     51 CB         28.2257    4.5545  -10.1191 C.3       8 UNK        -0.2000 
     52 C          29.3831    2.2589   -9.9398 C.2       8 UNK         0.4941 
     53 O          30.1397    2.6408  -10.8356 O.2       8 UNK        -0.5273 
     54 N          29.3895    1.0123   -9.4465 N.am      9 UNK        -0.4262 
     55 CA         30.3167   -0.0377   -9.8624 C.3       9 UNK         0.0264 
     56 CB         29.8176   -1.3931   -9.3367 C.3       9 UNK        -0.1955 
     57 C          31.7378    0.2596   -9.3594 C.2       9 UNK         0.5031 
     58 O          31.9913    0.1721   -8.1557 O.2       9 UNK        -0.5390 
     59 N          32.6452    0.5899  -10.2853 N.am      10 UNK        -0.4204 
     60 CA         34.0624    0.8462  -10.0194 C.3       10 UNK         0.0237 
     61 CB         34.6110    1.7924  -11.1047 C.3       10 UNK        -0.1985 
     62 C          34.8500   -0.4742   -9.9249 C.2       10 UNK         0.4970 
     63 O          35.7264   -0.7321  -10.7528 O.2       10 UNK        -0.4914 
     64 N          34.4901   -1.3055   -8.9408 N.am      11 UNK        -0.4285 
     65 CA         35.1277   -2.5960   -8.6500 C.3       11 UNK         0.1007 
     66 C          36.5911   -2.4705   -8.1341 C.2       11 UNK         0.5703 
     67 N          37.3774   -3.5332   -8.2451 N.am      11 UNK        -0.7361 
     68 O          37.0149   -1.4369   -7.6183 O.2       11 UNK        -0.4986 
     69 C69        34.2401   -3.4728   -7.7266 C.3       12 UNK        -0.0947 
     70 S70        33.8874   -2.7295   -6.0959 S.3       12 UNK        -0.2240 
     71 C71        32.0712   -2.7938   -6.0563 C.3       12 UNK         0.0194 
     72 H72        25.5170   -6.1440    1.1380 H         1 UNK         0.0906 
     73 H73        26.1501   -5.4739    2.6424 H         1 UNK         0.0906 
     74 H74        24.6093   -4.8994    1.9996 H         1 UNK         0.0906 
     75 H75        26.5513   -5.3243   -0.6618 H         1 UNK         0.3140 
     76 H76        28.2382   -2.9880   -0.5519 H         1 UNK         0.1085 
     77 H77        27.6178   -5.0325   -2.7309 H         1 UNK         0.0836 
     78 H78        28.6637   -3.6946   -3.0386 H         1 UNK         0.0836 
     79 H79        31.9256   -4.4053   -1.1205 H         1 UNK         0.0731 
     80 H80        30.7209   -3.4417   -0.3110 H         1 UNK         0.0731 
     81 H81        31.8408   -4.3081   -3.8118 H         1 UNK         0.1312 
     82 H82        31.1320   -0.3461   -5.2951 H         1 UNK         0.1406 
     83 H83        30.2581   -1.2961   -1.2037 H         1 UNK         0.1631 
     84 H84        30.2165    1.3492   -3.8981 H         1 UNK         0.0717 
     85 H85        30.8682    1.2497   -2.2859 H         1 UNK         0.0717 
     86 H86        26.5902    2.0862   -2.8868 H         1 UNK         0.0934 
     87 H87        28.0467    2.9834   -3.2075 H         1 UNK         0.0934 
     88 H88        28.4748    1.8143   -5.2709 H         1 UNK         0.0739 
     89 H89        26.9425   -0.3561   -4.2592 H         1 UNK         0.3093 
     90 H90        26.4901   -2.0326   -7.3889 H         1 UNK         0.0818 
     91 H91        28.3876   -2.5682   -5.0441 H         1 UNK         0.0819 
     92 H92        27.5668   -3.8437   -5.9450 H         1 UNK         0.0819 
     93 H93        28.7154   -2.7907   -6.7489 H         1 UNK         0.0819 
     94 H94        25.8452   -2.4425   -4.5669 H         1 UNK         0.3041 
     95 H95        22.5462   -1.1229   -4.8049 H         1 UNK         0.0784 
     96 H96        22.2924   -3.3875   -5.8333 H         1 UNK         0.0793 
     97 H97        23.4253   -4.0588   -4.6682 H         1 UNK         0.0793 
     98 H98        21.8754   -3.4112   -4.1283 H         1 UNK         0.0793 
     99 H99        23.8815   -2.5574   -2.7253 H         1 UNK         0.3024 
    100 H100       25.5806    0.2146   -1.2802 H         1 UNK         0.1171 
    101 H101       23.2060    0.4390   -0.4994 H         1 UNK         0.0786 
    102 H102       24.2183   -0.3528    0.6960 H         1 UNK         0.0786 
    103 H103       23.1101   -1.3051   -0.2915 H         1 UNK         0.0786 
    104 H104       25.6177   -2.1799   -0.0908 H         1 UNK         0.2977 
    105 H105       24.9255    1.4506   -4.8166 H         1 UNK         0.3127 
    106 H106       24.1534    3.9503   -5.8784 H         1 UNK         0.0770 
    107 H107       22.6469    1.2791   -5.8429 H         1 UNK         0.0814 
    108 H108       21.9161    2.8545   -6.1218 H         1 UNK         0.0814 
    109 H109       22.6388    2.4902   -4.5626 H         1 UNK         0.0814 
    110 H110       24.8057    0.8544   -7.5419 H         1 UNK         0.2983 
    111 H111       24.1128    1.7956  -10.1853 H         1 UNK         0.0947 
    112 H112       25.1862   -0.3368  -10.8949 H         1 UNK         0.0806 
    113 H113       24.0942   -0.6208   -9.5495 H         1 UNK         0.0806 
    114 H114       25.8362   -0.5746   -9.2796 H         1 UNK         0.0806 
    115 H115       26.7517    2.5148   -8.1768 H         1 UNK         0.3000 
    116 H116       28.7190    3.4738   -8.3379 H         1 UNK         0.0850 
    117 H117       29.1803    5.0811  -10.1506 H         1 UNK         0.0810 
    118 H118       27.5027    5.2230   -9.6516 H         1 UNK         0.0810 
    119 H119       27.9128    4.3888  -11.1504 H         1 UNK         0.0810 
    120 H120       28.7486    0.7773   -8.6894 H         1 UNK         0.3040 
    121 H121       30.3208   -0.0807  -10.9537 H         1 UNK         0.0766 
    122 H122       28.8198   -1.6229   -9.7110 H         1 UNK         0.0812 
    123 H123       29.7757   -1.4019   -8.2481 H         1 UNK         0.0812 
    124 H124       30.4799   -2.2026   -9.6460 H         1 UNK         0.0812 
    125 H125       32.3522    0.6439  -11.2507 H         1 UNK         0.3205 
    126 H126       34.1616    1.3542   -9.0574 H         1 UNK         0.0754 
    127 H127       35.6610    2.0268  -10.9238 H         1 UNK         0.0769 
    128 H128       34.0674    2.7375  -11.1166 H         1 UNK         0.0769 
    129 H129       34.5408    1.3530  -12.1006 H         1 UNK         0.0769 
    130 H130       33.7606   -1.0083   -8.3031 H         1 UNK         0.2981 
    131 H131       35.1937   -3.1187   -9.6065 H         1 UNK         0.0541 
    132 H132       37.0432   -4.3897   -8.6586 H         1 UNK         0.3459 
    133 H133       38.3262   -3.4767   -7.9091 H         1 UNK         0.3459 
    134 H134       33.2979   -3.6832   -8.2351 H         1 UNK         0.0612 
    135 H135       34.7033   -4.4471   -7.5624 H         1 UNK         0.0612 
    136 H136       31.7364   -3.8085   -6.2774 H         1 UNK         0.0624 
    137 H137       31.6670   -2.1542   -6.8410 H         1 UNK         0.0624 
@<TRIPOS>BOND
     1    1    2 1    
     2    1   72 1    
     3    1   73 1    
     4    1   74 1    
     5    2    3 2    
     6    2    4 am   BACKBONE|DICT|INTERRES
     7    4    5 1    
     8    4   75 1    
     9    5    6 1    
    10    5   35 1    
    11    5   76 1    
    12    6    7 1    
    13    6   77 1    
    14    6   78 1    
    15    7    8 1    
    16    8    9 1    
    17    8   79 1    
    18    8   80 1    
    19    9   10 ar   
    20    9   14 ar   
    21   10   11 ar   
    22   10   81 1    
    23   11   12 ar   
    24   11   71 1    
    25   12   13 ar   
    26   12   82 1    
    27   13   14 ar   
    28   13   15 1    
    29   14   83 1    
    30   15   16 1    
    31   15   84 1    
    32   15   85 1    
    33   16   17 1    
    34   17   18 1    
    35   17   86 1    
    36   17   87 1    
    37   18   19 1    
    38   18   37 1    
    39   18   88 1    
    40   19   20 am   BACKBONE|DICT|INTERRES
    41   19   89 1    
    42   20   21 2    
    43   20   22 1    
    44   22   23 1    
    45   22   24 1    
    46   22   90 1    
    47   23   91 1    
    48   23   92 1    
    49   23   93 1    
    50   24   25 am   BACKBONE|DICT|INTERRES
    51   24   94 1    
    52   25   26 2    
    53   25   27 1    
    54   27   28 1    
    55   27   29 1    
    56   27   95 1    
    57   28   96 1    
    58   28   97 1    
    59   28   98 1    
    60   29   30 am   BACKBONE|DICT|INTERRES
    61   29   99 1    
    62   30   31 2    
    63   30   32 1    
    64   32   33 1    
    65   32   34 1    
    66   32  100 1    
    67   33  101 1    
    68   33  102 1    
    69   33  103 1    
    70   34   35 am   BACKBONE|DICT|INTERRES
    71   34  104 1    
    72   35   36 2    
    73   37   38 2    
    74   37   39 am   BACKBONE|DICT|INTERRES
    75   39   40 1    
    76   39  105 1    
    77   40   41 1    
    78   40   42 1    
    79   40  106 1    
    80   41  107 1    
    81   41  108 1    
    82   41  109 1    
    83   42   43 2    
    84   42   44 am   BACKBONE|DICT|INTERRES
    85   44   45 1    
    86   44  110 1    
    87   45   46 1    
    88   45   47 1    
    89   45  111 1    
    90   46  112 1    
    91   46  113 1    
    92   46  114 1    
    93   47   48 2    
    94   47   49 am   BACKBONE|DICT|INTERRES
    95   49   50 1    
    96   49  115 1    
    97   50   51 1    
    98   50   52 1    
    99   50  116 1    
   100   51  117 1    
   101   51  118 1    
   102   51  119 1    
   103   52   53 2    
   104   52   54 am   BACKBONE|DICT|INTERRES
   105   54   55 1    
   106   54  120 1    
   107   55   56 1    
   108   55   57 1    
   109   55  121 1    
   110   56  122 1    
   111   56  123 1    
   112   56  124 1    
   113   57   58 2    
   114   57   59 am   BACKBONE|DICT|INTERRES
   115   59   60 1    
   116   59  125 1    
   117   60   61 1    
   118   60   62 1    
   119   60  126 1    
   120   61  127 1    
   121   61  128 1    
   122   61  129 1    
   123   62   63 2    
   124   62   64 am   BACKBONE|DICT|INTERRES
   125   64   65 1    
   126   64  130 1    
   127   65   66 1    
   128   65   69 1    
   129   65  131 1    
   130   66   67 am   BACKBONE|DICT|INTERRES
   131   66   68 2    
   132   67  132 1    
   133   67  133 1    
   134   69   70 1    
   135   69  134 1    
   136   69  135 1    
   137   70   71 1    
   138   71  136 1    
   139   71  137 1    
@<TRIPOS>SUBSTRUCTURE
     1 UNK         1 GROUP             0       ****    0 ROOT    
