@<TRIPOS>MOLECULE
3R137
137   139    1
SMALL
USER_CHARGES


@<TRIPOS>ATOM
      1 CA         25.6867   -3.1730    3.2587 C.3       0 UNK        -0.2020 
      2 C          26.2448   -2.3401    2.1149 C.2       0 UNK         0.4855 
      3 O          25.8878   -1.1690    1.9763 O.2       0 UNK        -0.5197 
      4 N          27.1140   -2.9317    1.2851 N.am      1 UNK        -0.4892 
      5 CA         27.7353   -2.2976    0.1164 C.3       1 UNK         0.0835 
      6 C6         29.1152   -2.9364   -0.1925 C.3       12 UNK        -0.0855 
      7 S7         30.2545   -1.7643   -1.0010 S.3       12 UNK        -0.2931 
      8 C8         31.4730   -2.9016   -1.7300 C.3       12 UNK         0.0378 
      9 C9         31.1859   -3.1821   -3.1985 C.ar      12 UNK        -0.0802 
     10 C10        31.8691   -2.4715   -4.1888 C.ar      12 UNK        -0.0944 
     11 C11        31.6624   -2.7502   -5.5462 C.ar      12 UNK        -0.0787 
     12 C12        30.7467   -3.7479   -5.8979 C.ar      12 UNK        -0.0862 
     13 C13        30.0435   -4.4599   -4.9191 C.ar      12 UNK        -0.0733 
     14 C14        30.2710   -4.1708   -3.5703 C.ar      12 UNK        -0.0832 
     15 C15        29.0840   -5.5859   -5.2962 C.3       12 UNK         0.0240 
     16 S16        27.9728   -5.1913   -6.6874 S.3       12 UNK        -0.2522 
     17 C17        26.8464   -3.9670   -5.9418 C.3       12 UNK        -0.0967 
     18 CA         26.5889   -2.7716   -6.8944 C.3       5 UNK         0.0660 
     19 N          25.3266   -2.1037   -6.5940 N.am      5 UNK        -0.4015 
     20 C          24.3188   -1.9279   -7.4591 C.2       4 UNK         0.4946 
     21 O          24.2641   -2.4635   -8.5665 O.2       4 UNK        -0.5353 
     22 CA         23.1684   -0.9877   -7.0410 C.3       4 UNK         0.0277 
     23 CB         21.9119   -1.8017   -6.6897 C.3       4 UNK        -0.1981 
     24 N          23.4824   -0.0931   -5.9224 N.am      4 UNK        -0.4209 
     25 C          24.4665    0.8174   -5.8982 C.2       3 UNK         0.4942 
     26 O          25.2080    1.0547   -6.8515 O.2       3 UNK        -0.5208 
     27 CA         24.7326    1.5090   -4.5485 C.3       3 UNK         0.0250 
     28 CB         23.9298    2.8148   -4.4476 C.3       3 UNK        -0.1990 
     29 N          24.4594    0.6653   -3.3738 N.am      3 UNK        -0.4232 
     30 C          25.0051   -0.5391   -3.1426 C.2       2 UNK         0.4993 
     31 O          25.7786   -1.0897   -3.9270 O.2       2 UNK        -0.5286 
     32 CA         24.5659   -1.2681   -1.8641 C.3       2 UNK         0.0209 
     33 CB         23.8126   -2.5708   -2.2012 C.3       2 UNK        -0.1931 
     34 N          25.6827   -1.5100   -0.9420 N.am      2 UNK        -0.4546 
     35 C          26.7538   -2.3084   -1.0787 C.2       1 UNK         0.5154 
     36 O          26.9497   -3.0637   -2.0322 O.2       1 UNK        -0.5181 
     37 C          27.7252   -1.7338   -6.8562 C.2       5 UNK         0.5014 
     38 O          28.4322   -1.5762   -7.8515 O.2       5 UNK        -0.5248 
     39 N          27.8670   -1.0323   -5.7223 N.am      6 UNK        -0.4434 
     40 CA         28.9846   -0.1432   -5.4068 C.3       6 UNK         0.0363 
     41 CB         28.8633    0.3421   -3.9548 C.3       6 UNK        -0.1936 
     42 C          29.1526    1.0376   -6.3705 C.2       6 UNK         0.5081 
     43 O          30.2571    1.2543   -6.8681 O.2       6 UNK        -0.5248 
     44 N          28.0642    1.7728   -6.6307 N.am      7 UNK        -0.4718 
     45 CA         28.0675    2.9136   -7.5487 C.3       7 UNK         0.0273 
     46 CB         26.9359    3.8896   -7.1868 C.3       7 UNK        -0.1935 
     47 C          27.9594    2.4585   -9.0102 C.2       7 UNK         0.5018 
     48 O          28.5497    3.0985   -9.8792 O.2       7 UNK        -0.5186 
     49 N          27.2446    1.3491   -9.2508 N.am      8 UNK        -0.4240 
     50 CA         27.0801    0.7250  -10.5666 C.3       8 UNK         0.0235 
     51 CB         26.0595   -0.4182  -10.4731 C.3       8 UNK        -0.2000 
     52 C          28.4059    0.2278  -11.1684 C.2       8 UNK         0.4941 
     53 O          28.6826    0.5140  -12.3337 O.2       8 UNK        -0.5273 
     54 N          29.2134   -0.4741  -10.3604 N.am      9 UNK        -0.4262 
     55 CA         30.5607   -0.9271  -10.7245 C.3       9 UNK         0.0264 
     56 CB         30.8575   -2.2511  -10.0027 C.3       9 UNK        -0.1955 
     57 C          31.6518    0.1314  -10.4572 C.2       9 UNK         0.5031 
     58 O          32.8108   -0.1116  -10.7964 O.2       9 UNK        -0.5390 
     59 N          31.2644    1.2831   -9.8891 N.am      10 UNK        -0.4204 
     60 CA         32.0675    2.4831   -9.6319 C.3       10 UNK         0.0237 
     61 CB         32.4908    3.1471  -10.9601 C.3       10 UNK        -0.1985 
     62 C          33.2460    2.2500   -8.6672 C.2       10 UNK         0.4970 
     63 O          34.3677    2.6789   -8.9481 O.2       10 UNK        -0.4914 
     64 N          32.9643    1.6008   -7.5325 N.am      11 UNK        -0.4285 
     65 CA         33.8817    1.5086   -6.3881 C.3       11 UNK         0.1007 
     66 C          33.9244    2.8364   -5.5819 C.2       11 UNK         0.5703 
     67 N          35.0202    3.0918   -4.8732 N.am      11 UNK        -0.7361 
     68 O          32.9731    3.6207   -5.5654 O.2       11 UNK        -0.4986 
     69 C69        33.5302    0.3099   -5.4707 C.3       12 UNK        -0.0947 
     70 S70        33.9987   -1.2814   -6.2289 S.3       12 UNK        -0.2240 
     71 C71        32.3754   -1.9856   -6.6642 C.3       12 UNK         0.0194 
     72 H72        25.9302   -2.7085    4.2140 H         1 UNK         0.0906 
     73 H73        24.6020   -3.2400    3.1790 H         1 UNK         0.0906 
     74 H74        26.0900   -4.1857    3.2617 H         1 UNK         0.0906 
     75 H75        27.3414   -3.9067    1.4235 H         1 UNK         0.3140 
     76 H76        27.9135   -1.2491    0.3687 H         1 UNK         0.1085 
     77 H77        29.6020   -3.2364    0.7372 H         1 UNK         0.0836 
     78 H78        29.0180   -3.8518   -0.7771 H         1 UNK         0.0836 
     79 H79        32.4640   -2.4574   -1.6239 H         1 UNK         0.0731 
     80 H80        31.5056   -3.8354   -1.1665 H         1 UNK         0.0731 
     81 H81        32.5685   -1.7061   -3.8881 H         1 UNK         0.1312 
     82 H82        30.5780   -3.9714   -6.9425 H         1 UNK         0.1406 
     83 H83        29.7454   -4.7270   -2.8069 H         1 UNK         0.1631 
     84 H84        28.4744   -5.8795   -4.4400 H         1 UNK         0.0717 
     85 H85        29.6754   -6.4617   -5.5660 H         1 UNK         0.0717 
     86 H86        25.9094   -4.4881   -5.7390 H         1 UNK         0.0934 
     87 H87        27.2148   -3.6395   -4.9665 H         1 UNK         0.0934 
     88 H88        26.5525   -3.1562   -7.9161 H         1 UNK         0.0739 
     89 H89        25.2863   -1.6356   -5.6932 H         1 UNK         0.3093 
     90 H90        22.9425   -0.3599   -7.9055 H         1 UNK         0.0818 
     91 H91        21.0601   -1.1522   -6.4867 H         1 UNK         0.0819 
     92 H92        21.6264   -2.4558   -7.5150 H         1 UNK         0.0819 
     93 H93        22.0717   -2.4331   -5.8146 H         1 UNK         0.0819 
     94 H94        22.9369   -0.2166   -5.0822 H         1 UNK         0.3041 
     95 H95        25.7931    1.7644   -4.5213 H         1 UNK         0.0784 
     96 H96        24.1341    3.4656   -5.2993 H         1 UNK         0.0793 
     97 H97        22.8550    2.6296   -4.4295 H         1 UNK         0.0793 
     98 H98        24.1905    3.3732   -3.5482 H         1 UNK         0.0793 
     99 H99        23.8223    1.0494   -2.6901 H         1 UNK         0.3024 
    100 H100       23.8711   -0.6226   -1.3241 H         1 UNK         0.1171 
    101 H101       22.9185   -2.3620   -2.7899 H         1 UNK         0.0786 
    102 H102       23.4927   -3.0892   -1.2974 H         1 UNK         0.0786 
    103 H103       24.4256   -3.2600   -2.7832 H         1 UNK         0.0786 
    104 H104       25.6278   -1.0039   -0.0632 H         1 UNK         0.2977 
    105 H105       27.1955   -1.1817   -4.9689 H         1 UNK         0.3127 
    106 H106       29.8908   -0.7414   -5.4766 H         1 UNK         0.0770 
    107 H107       27.9745    0.9536   -3.8010 H         1 UNK         0.0814 
    108 H108       29.7296    0.9401   -3.6691 H         1 UNK         0.0814 
    109 H109       28.8087   -0.5005   -3.2658 H         1 UNK         0.0814 
    110 H110       27.1643    1.4772   -6.2729 H         1 UNK         0.2983 
    111 H111       29.0135    3.4494   -7.4379 H         1 UNK         0.0947 
    112 H112       27.0035    4.7960   -7.7897 H         1 UNK         0.0806 
    113 H113       26.9895    4.1919   -6.1409 H         1 UNK         0.0806 
    114 H114       25.9497    3.4615   -7.3638 H         1 UNK         0.0806 
    115 H115       26.7642    0.9185   -8.4700 H         1 UNK         0.3000 
    116 H116       26.6767    1.4848  -11.2394 H         1 UNK         0.0850 
    117 H117       25.8819   -0.8646  -11.4522 H         1 UNK         0.0810 
    118 H118       25.0985   -0.0646  -10.0989 H         1 UNK         0.0810 
    119 H119       26.4039   -1.2136   -9.8115 H         1 UNK         0.0810 
    120 H120       28.8927   -0.7206   -9.4236 H         1 UNK         0.3040 
    121 H121       30.5891   -1.1308  -11.7970 H         1 UNK         0.0766 
    122 H122       31.8740   -2.5951  -10.1985 H         1 UNK         0.0812 
    123 H123       30.1795   -3.0380  -10.3330 H         1 UNK         0.0812 
    124 H124       30.7420   -2.1519   -8.9262 H         1 UNK         0.0812 
    125 H125       30.2894    1.3605   -9.6352 H         1 UNK         0.3205 
    126 H126       31.4020    3.1805   -9.1206 H         1 UNK         0.0754 
    127 H127       32.9840    4.1031  -10.7804 H         1 UNK         0.0769 
    128 H128       31.6269    3.3443  -11.5952 H         1 UNK         0.0769 
    129 H129       33.1857    2.5224  -11.5224 H         1 UNK         0.0769 
    130 H130       31.9929    1.3594   -7.3417 H         1 UNK         0.2981 
    131 H131       34.8892    1.3480   -6.7784 H         1 UNK         0.0541 
    132 H132       35.8043    2.4540   -4.8693 H         1 UNK         0.3459 
    133 H133       35.0656    3.9423   -4.3339 H         1 UNK         0.3459 
    134 H134       32.4692    0.3170   -5.2142 H         1 UNK         0.0612 
    135 H135       34.0707    0.3721   -4.5244 H         1 UNK         0.0612 
    136 H136       31.7253   -1.1915   -7.0325 H         1 UNK         0.0624 
    137 H137       32.5461   -2.6629   -7.5018 H         1 UNK         0.0624 
@<TRIPOS>BOND
     1    1    2 1    
     2    1   72 1    
     3    1   73 1    
     4    1   74 1    
     5    2    3 2    
     6    2    4 am   BACKBONE|DICT|INTERRES
     7    4    5 1    
     8    4   75 1    
     9    5    6 1    
    10    5   35 1    
    11    5   76 1    
    12    6    7 1    
    13    6   77 1    
    14    6   78 1    
    15    7    8 1    
    16    8    9 1    
    17    8   79 1    
    18    8   80 1    
    19    9   10 ar   
    20    9   14 ar   
    21   10   11 ar   
    22   10   81 1    
    23   11   12 ar   
    24   11   71 1    
    25   12   13 ar   
    26   12   82 1    
    27   13   14 ar   
    28   13   15 1    
    29   14   83 1    
    30   15   16 1    
    31   15   84 1    
    32   15   85 1    
    33   16   17 1    
    34   17   18 1    
    35   17   86 1    
    36   17   87 1    
    37   18   19 1    
    38   18   37 1    
    39   18   88 1    
    40   19   20 am   BACKBONE|DICT|INTERRES
    41   19   89 1    
    42   20   21 2    
    43   20   22 1    
    44   22   23 1    
    45   22   24 1    
    46   22   90 1    
    47   23   91 1    
    48   23   92 1    
    49   23   93 1    
    50   24   25 am   BACKBONE|DICT|INTERRES
    51   24   94 1    
    52   25   26 2    
    53   25   27 1    
    54   27   28 1    
    55   27   29 1    
    56   27   95 1    
    57   28   96 1    
    58   28   97 1    
    59   28   98 1    
    60   29   30 am   BACKBONE|DICT|INTERRES
    61   29   99 1    
    62   30   31 2    
    63   30   32 1    
    64   32   33 1    
    65   32   34 1    
    66   32  100 1    
    67   33  101 1    
    68   33  102 1    
    69   33  103 1    
    70   34   35 am   BACKBONE|DICT|INTERRES
    71   34  104 1    
    72   35   36 2    
    73   37   38 2    
    74   37   39 am   BACKBONE|DICT|INTERRES
    75   39   40 1    
    76   39  105 1    
    77   40   41 1    
    78   40   42 1    
    79   40  106 1    
    80   41  107 1    
    81   41  108 1    
    82   41  109 1    
    83   42   43 2    
    84   42   44 am   BACKBONE|DICT|INTERRES
    85   44   45 1    
    86   44  110 1    
    87   45   46 1    
    88   45   47 1    
    89   45  111 1    
    90   46  112 1    
    91   46  113 1    
    92   46  114 1    
    93   47   48 2    
    94   47   49 am   BACKBONE|DICT|INTERRES
    95   49   50 1    
    96   49  115 1    
    97   50   51 1    
    98   50   52 1    
    99   50  116 1    
   100   51  117 1    
   101   51  118 1    
   102   51  119 1    
   103   52   53 2    
   104   52   54 am   BACKBONE|DICT|INTERRES
   105   54   55 1    
   106   54  120 1    
   107   55   56 1    
   108   55   57 1    
   109   55  121 1    
   110   56  122 1    
   111   56  123 1    
   112   56  124 1    
   113   57   58 2    
   114   57   59 am   BACKBONE|DICT|INTERRES
   115   59   60 1    
   116   59  125 1    
   117   60   61 1    
   118   60   62 1    
   119   60  126 1    
   120   61  127 1    
   121   61  128 1    
   122   61  129 1    
   123   62   63 2    
   124   62   64 am   BACKBONE|DICT|INTERRES
   125   64   65 1    
   126   64  130 1    
   127   65   66 1    
   128   65   69 1    
   129   65  131 1    
   130   66   67 am   BACKBONE|DICT|INTERRES
   131   66   68 2    
   132   67  132 1    
   133   67  133 1    
   134   69   70 1    
   135   69  134 1    
   136   69  135 1    
   137   70   71 1    
   138   71  136 1    
   139   71  137 1    
@<TRIPOS>SUBSTRUCTURE
     1 UNK         1 GROUP             0       ****    0 ROOT    
