@<TRIPOS>MOLECULE
3R137
137   139    1
SMALL
USER_CHARGES


@<TRIPOS>ATOM
      1 CA         24.5058   -6.5013   -1.2396 C.3       0 UNK        -0.2020 
      2 C          25.3185   -5.2753   -1.6240 C.2       0 UNK         0.4855 
      3 O          25.1309   -4.7369   -2.7168 O.2       0 UNK        -0.5197 
      4 N          26.2066   -4.8145   -0.7283 N.am      1 UNK        -0.4892 
      5 CA         27.1194   -3.6747   -0.9247 C.3       1 UNK         0.0835 
      6 C6         28.2373   -3.9928   -1.9531 C.3       12 UNK        -0.0855 
      7 S7         29.5019   -5.1423   -1.3153 S.3       12 UNK        -0.2931 
      8 C8         30.7986   -4.0124   -0.6934 C.3       12 UNK         0.0378 
      9 C9         31.1891   -2.9246   -1.6898 C.ar      12 UNK        -0.0802 
     10 C10        31.7018   -3.2588   -2.9465 C.ar      12 UNK        -0.0944 
     11 C11        32.0209   -2.2608   -3.8727 C.ar      12 UNK        -0.0787 
     12 C12        31.8442   -0.9168   -3.5285 C.ar      12 UNK        -0.0862 
     13 C13        31.3373   -0.5685   -2.2715 C.ar      12 UNK        -0.0733 
     14 C14        31.0121   -1.5775   -1.3592 C.ar      12 UNK        -0.0832 
     15 C15        31.1549    0.8934   -1.8755 C.3       12 UNK         0.0240 
     16 S16        30.1313    1.8521   -3.0410 S.3       12 UNK        -0.2522 
     17 C17        28.5490    0.9375   -3.0576 C.3       12 UNK        -0.0967 
     18 CA         28.0357    0.7211   -4.5066 C.3       5 UNK         0.0660 
     19 N          27.3985   -0.5898   -4.6894 N.am      5 UNK        -0.4015 
     20 C          27.2253   -1.1841   -5.8803 C.2       4 UNK         0.4946 
     21 O          27.5312   -0.6578   -6.9499 O.2       4 UNK        -0.5353 
     22 CA         26.5593   -2.5687   -5.8933 C.3       4 UNK         0.0277 
     23 CB         27.5837   -3.6656   -5.5681 C.3       4 UNK        -0.1981 
     24 N          25.3998   -2.6528   -4.9969 N.am      4 UNK        -0.4209 
     25 C          24.2328   -2.0395   -5.2522 C.2       3 UNK         0.4942 
     26 O          24.0417   -1.3257   -6.2358 O.2       3 UNK        -0.5208 
     27 CA         23.0868   -2.2429   -4.2513 C.3       3 UNK         0.0250 
     28 CB         22.3994   -3.6016   -4.4656 C.3       3 UNK        -0.1990 
     29 N          23.5552   -2.1278   -2.8719 N.am      3 UNK        -0.4232 
     30 C          23.7215   -0.9594   -2.2346 C.2       2 UNK         0.4993 
     31 O          23.4270    0.1329   -2.7210 O.2       2 UNK        -0.5286 
     32 CA         24.3301   -1.0040   -0.8197 C.3       2 UNK         0.0209 
     33 CB         23.2193   -1.0052    0.2430 C.3       2 UNK        -0.1931 
     34 N          25.2233   -2.1441   -0.5866 N.am      2 UNK        -0.4546 
     35 C          26.3557   -2.3731   -1.2669 C.2       1 UNK         0.5154 
     36 O          26.7586   -1.6296   -2.1623 O.2       1 UNK        -0.5181 
     37 C          27.1717    1.9025   -5.0092 C.2       5 UNK         0.5014 
     38 O          27.6745    3.0230   -5.0949 O.2       5 UNK        -0.5248 
     39 N          25.9117    1.6486   -5.3984 N.am      6 UNK        -0.4434 
     40 CA         25.0921    2.5893   -6.1697 C.3       6 UNK         0.0363 
     41 CB         23.6419    2.0855   -6.2260 C.3       6 UNK        -0.1936 
     42 C          25.6435    2.8241   -7.5923 C.2       6 UNK         0.5081 
     43 O          25.3519    3.8632   -8.1845 O.2       6 UNK        -0.5248 
     44 N          26.4498    1.8807   -8.0993 N.am      7 UNK        -0.4718 
     45 CA         27.2096    1.9779   -9.3408 C.3       7 UNK         0.0273 
     46 CB         26.6751    0.9355  -10.3404 C.3       7 UNK        -0.1935 
     47 C          28.7002    1.7809   -9.0197 C.2       7 UNK         0.5018 
     48 O          29.3564    0.9356   -9.6304 O.2       7 UNK        -0.5186 
     49 N          29.2216    2.5672   -8.0638 N.am      8 UNK        -0.4240 
     50 CA         30.6034    2.5056   -7.5620 C.3       8 UNK         0.0235 
     51 CB         30.8278    3.6128   -6.5203 C.3       8 UNK        -0.2000 
     52 C          31.6932    2.5825   -8.6466 C.2       8 UNK         0.4941 
     53 O          32.7301    1.9357   -8.5025 O.2       8 UNK        -0.5273 
     54 N          31.4247    3.3306   -9.7264 N.am      9 UNK        -0.4262 
     55 CA         32.2837    3.4312  -10.9094 C.3       9 UNK         0.0264 
     56 CB         31.7640    4.5571  -11.8181 C.3       9 UNK        -0.1955 
     57 C          32.4078    2.1147  -11.7014 C.2       9 UNK         0.5031 
     58 O          33.4366    1.9040  -12.3456 O.2       9 UNK        -0.5390 
     59 N          31.3776    1.2584  -11.6428 N.am      10 UNK        -0.4204 
     60 CA         31.3880   -0.0873  -12.2165 C.3       10 UNK         0.0237 
     61 CB         29.9719   -0.4678  -12.6812 C.3       10 UNK        -0.1985 
     62 C          31.9248   -1.1120  -11.2055 C.2       10 UNK         0.4970 
     63 O          32.6467   -2.0242  -11.6099 O.2       10 UNK        -0.4914 
     64 N          31.5714   -0.9471   -9.9214 N.am      11 UNK        -0.4285 
     65 CA         32.0566   -1.7785   -8.8096 C.3       11 UNK         0.1007 
     66 C          33.5944   -1.6935   -8.5929 C.2       11 UNK         0.5703 
     67 N          34.1855   -0.5056   -8.6186 N.am      11 UNK        -0.7361 
     68 O          34.2560   -2.7128   -8.4117 O.2       11 UNK        -0.4986 
     69 C69        31.2736   -1.4999   -7.4965 C.3       12 UNK        -0.0947 
     70 S70        31.2075   -2.9689   -6.4173 S.3       12 UNK        -0.2240 
     71 C71        32.5592   -2.6451   -5.2410 C.3       12 UNK         0.0194 
     72 H72        24.7597   -6.8647   -0.2442 H         1 UNK         0.0906 
     73 H73        23.4421   -6.2654   -1.2553 H         1 UNK         0.0906 
     74 H74        24.6866   -7.3061   -1.9516 H         1 UNK         0.0906 
     75 H75        26.3096   -5.2992    0.1532 H         1 UNK         0.3140 
     76 H76        27.5953   -3.4763    0.0371 H         1 UNK         0.1085 
     77 H77        27.8023   -4.4570   -2.8365 H         1 UNK         0.0836 
     78 H78        28.7272   -3.0909   -2.3163 H         1 UNK         0.0836 
     79 H79        31.6843   -4.5977   -0.4424 H         1 UNK         0.0731 
     80 H80        30.4508   -3.5714    0.2420 H         1 UNK         0.0731 
     81 H81        31.8308   -4.2996   -3.2111 H         1 UNK         0.1312 
     82 H82        32.0937   -0.1413   -4.2399 H         1 UNK         0.1406 
     83 H83        30.6160   -1.3129   -0.3880 H         1 UNK         0.1631 
     84 H84        32.1376    1.3619   -1.8090 H         1 UNK         0.0717 
     85 H85        30.7101    0.9751   -0.8825 H         1 UNK         0.0717 
     86 H86        28.7136   -0.0229   -2.5704 H         1 UNK         0.0934 
     87 H87        27.8158    1.4560   -2.4368 H         1 UNK         0.0934 
     88 H88        28.9081    0.7043   -5.1648 H         1 UNK         0.0739 
     89 H89        27.1028   -1.0669   -3.8378 H         1 UNK         0.3093 
     90 H90        26.1971   -2.7529   -6.9075 H         1 UNK         0.0818 
     91 H91        27.1064   -4.6174   -5.3344 H         1 UNK         0.0819 
     92 H92        28.2396   -3.8335   -6.4229 H         1 UNK         0.0819 
     93 H93        28.2271   -3.3855   -4.7353 H         1 UNK         0.0819 
     94 H94        25.4753   -3.2465   -4.1773 H         1 UNK         0.3041 
     95 H95        22.3416   -1.4658   -4.4369 H         1 UNK         0.0784 
     96 H96        21.9980   -3.6764   -5.4771 H         1 UNK         0.0793 
     97 H97        23.0861   -4.4369   -4.3284 H         1 UNK         0.0793 
     98 H98        21.5659   -3.7368   -3.7762 H         1 UNK         0.0793 
     99 H99        23.8808   -2.9792   -2.4308 H         1 UNK         0.3024 
    100 H100       24.9209   -0.0928   -0.6997 H         1 UNK         0.1171 
    101 H101       23.6320   -0.9367    1.2498 H         1 UNK         0.0786 
    102 H102       22.5516   -0.1525    0.1106 H         1 UNK         0.0786 
    103 H103       22.6094   -1.9079    0.1890 H         1 UNK         0.0786 
    104 H104       24.9422   -2.8126    0.1165 H         1 UNK         0.2977 
    105 H105       25.5537    0.7084   -5.3030 H         1 UNK         0.3127 
    106 H106       25.0997    3.5488   -5.6482 H         1 UNK         0.0770 
    107 H107       23.5543    1.1740   -6.8174 H         1 UNK         0.0814 
    108 H108       22.9915    2.8308   -6.6854 H         1 UNK         0.0814 
    109 H109       23.2493    1.8806   -5.2295 H         1 UNK         0.0814 
    110 H110       26.6588    1.0569   -7.5406 H         1 UNK         0.2983 
    111 H111       27.1052    2.9698   -9.7855 H         1 UNK         0.0947 
    112 H112       27.2052    0.9969  -11.2917 H         1 UNK         0.0806 
    113 H113       25.6168    1.0927  -10.5483 H         1 UNK         0.0806 
    114 H114       26.7954   -0.0808   -9.9621 H         1 UNK         0.0806 
    115 H115       28.6031    3.2117   -7.5903 H         1 UNK         0.3000 
    116 H116       30.7143    1.5428   -7.0608 H         1 UNK         0.0850 
    117 H117       31.8486    3.5873   -6.1359 H         1 UNK         0.0810 
    118 H118       30.1661    3.4962   -5.6636 H         1 UNK         0.0810 
    119 H119       30.6613    4.6051   -6.9410 H         1 UNK         0.0810 
    120 H120       30.5507    3.8355   -9.7517 H         1 UNK         0.3040 
    121 H121       33.2858    3.7014  -10.5694 H         1 UNK         0.0766 
    122 H122       31.7529    5.5151  -11.2979 H         1 UNK         0.0812 
    123 H123       30.7533    4.3551  -12.1753 H         1 UNK         0.0812 
    124 H124       32.4016    4.6751  -12.6955 H         1 UNK         0.0812 
    125 H125       30.5912    1.4754  -11.0384 H         1 UNK         0.3205 
    126 H126       32.0412   -0.1046  -13.0919 H         1 UNK         0.0754 
    127 H127       29.9726   -1.4462  -13.1634 H         1 UNK         0.0769 
    128 H128       29.5863    0.2500  -13.4052 H         1 UNK         0.0769 
    129 H129       29.2674   -0.5173  -11.8505 H         1 UNK         0.0769 
    130 H130       30.9196   -0.2060   -9.6856 H         1 UNK         0.2981 
    131 H131       31.8411   -2.8062   -9.1094 H         1 UNK         0.0541 
    132 H132       33.6378    0.3483   -8.7035 H         1 UNK         0.3459 
    133 H133       35.1822   -0.4484   -8.4881 H         1 UNK         0.3459 
    134 H134       30.2380   -1.2419   -7.7256 H         1 UNK         0.0612 
    135 H135       31.6775   -0.6433   -6.9547 H         1 UNK         0.0612 
    136 H136       33.1681   -3.5464   -5.1570 H         1 UNK         0.0624 
    137 H137       33.2255   -1.8690   -5.6194 H         1 UNK         0.0624 
@<TRIPOS>BOND
     1    1    2 1    
     2    1   72 1    
     3    1   73 1    
     4    1   74 1    
     5    2    3 2    
     6    2    4 am   BACKBONE|DICT|INTERRES
     7    4    5 1    
     8    4   75 1    
     9    5    6 1    
    10    5   35 1    
    11    5   76 1    
    12    6    7 1    
    13    6   77 1    
    14    6   78 1    
    15    7    8 1    
    16    8    9 1    
    17    8   79 1    
    18    8   80 1    
    19    9   10 ar   
    20    9   14 ar   
    21   10   11 ar   
    22   10   81 1    
    23   11   12 ar   
    24   11   71 1    
    25   12   13 ar   
    26   12   82 1    
    27   13   14 ar   
    28   13   15 1    
    29   14   83 1    
    30   15   16 1    
    31   15   84 1    
    32   15   85 1    
    33   16   17 1    
    34   17   18 1    
    35   17   86 1    
    36   17   87 1    
    37   18   19 1    
    38   18   37 1    
    39   18   88 1    
    40   19   20 am   BACKBONE|DICT|INTERRES
    41   19   89 1    
    42   20   21 2    
    43   20   22 1    
    44   22   23 1    
    45   22   24 1    
    46   22   90 1    
    47   23   91 1    
    48   23   92 1    
    49   23   93 1    
    50   24   25 am   BACKBONE|DICT|INTERRES
    51   24   94 1    
    52   25   26 2    
    53   25   27 1    
    54   27   28 1    
    55   27   29 1    
    56   27   95 1    
    57   28   96 1    
    58   28   97 1    
    59   28   98 1    
    60   29   30 am   BACKBONE|DICT|INTERRES
    61   29   99 1    
    62   30   31 2    
    63   30   32 1    
    64   32   33 1    
    65   32   34 1    
    66   32  100 1    
    67   33  101 1    
    68   33  102 1    
    69   33  103 1    
    70   34   35 am   BACKBONE|DICT|INTERRES
    71   34  104 1    
    72   35   36 2    
    73   37   38 2    
    74   37   39 am   BACKBONE|DICT|INTERRES
    75   39   40 1    
    76   39  105 1    
    77   40   41 1    
    78   40   42 1    
    79   40  106 1    
    80   41  107 1    
    81   41  108 1    
    82   41  109 1    
    83   42   43 2    
    84   42   44 am   BACKBONE|DICT|INTERRES
    85   44   45 1    
    86   44  110 1    
    87   45   46 1    
    88   45   47 1    
    89   45  111 1    
    90   46  112 1    
    91   46  113 1    
    92   46  114 1    
    93   47   48 2    
    94   47   49 am   BACKBONE|DICT|INTERRES
    95   49   50 1    
    96   49  115 1    
    97   50   51 1    
    98   50   52 1    
    99   50  116 1    
   100   51  117 1    
   101   51  118 1    
   102   51  119 1    
   103   52   53 2    
   104   52   54 am   BACKBONE|DICT|INTERRES
   105   54   55 1    
   106   54  120 1    
   107   55   56 1    
   108   55   57 1    
   109   55  121 1    
   110   56  122 1    
   111   56  123 1    
   112   56  124 1    
   113   57   58 2    
   114   57   59 am   BACKBONE|DICT|INTERRES
   115   59   60 1    
   116   59  125 1    
   117   60   61 1    
   118   60   62 1    
   119   60  126 1    
   120   61  127 1    
   121   61  128 1    
   122   61  129 1    
   123   62   63 2    
   124   62   64 am   BACKBONE|DICT|INTERRES
   125   64   65 1    
   126   64  130 1    
   127   65   66 1    
   128   65   69 1    
   129   65  131 1    
   130   66   67 am   BACKBONE|DICT|INTERRES
   131   66   68 2    
   132   67  132 1    
   133   67  133 1    
   134   69   70 1    
   135   69  134 1    
   136   69  135 1    
   137   70   71 1    
   138   71  136 1    
   139   71  137 1    
@<TRIPOS>SUBSTRUCTURE
     1 UNK         1 GROUP             0       ****    0 ROOT    
