@<TRIPOS>MOLECULE
3R137
137   139    1
SMALL
USER_CHARGES


@<TRIPOS>ATOM
      1 CA         26.2892   -5.9322   -0.3872 C.3       0 UNK        -0.2020 
      2 C          26.9952   -6.4626   -1.6333 C.2       0 UNK         0.4855 
      3 O          26.8127   -7.6301   -1.9729 O.2       0 UNK        -0.5197 
      4 N          27.8167   -5.6713   -2.3377 N.am      1 UNK        -0.4892 
      5 CA         28.0926   -4.2435   -2.1321 C.3       1 UNK         0.0835 
      6 C6         29.2985   -3.7806   -2.9831 C.3       12 UNK        -0.0855 
      7 S7         30.8596   -4.5809   -2.4660 S.3       12 UNK        -0.2931 
      8 C8         31.5452   -3.4084   -1.2477 C.3       12 UNK         0.0378 
      9 C9         32.0198   -2.1199   -1.9032 C.ar      12 UNK        -0.0802 
     10 C10        33.2935   -2.0363   -2.4686 C.ar      12 UNK        -0.0944 
     11 C11        33.7126   -0.8606   -3.0990 C.ar      12 UNK        -0.0787 
     12 C12        32.8354    0.2270   -3.1838 C.ar      12 UNK        -0.0862 
     13 C13        31.5530    0.1573   -2.6269 C.ar      12 UNK        -0.0733 
     14 C14        31.1758   -1.0102   -1.9509 C.ar      12 UNK        -0.0832 
     15 C15        30.5995    1.3459   -2.7823 C.3       12 UNK         0.0240 
     16 S16        28.8347    0.8967   -2.6294 S.3       12 UNK        -0.2522 
     17 C17        27.9849    2.2755   -3.4644 C.3       12 UNK        -0.0967 
     18 CA         27.7550    2.0224   -4.9781 C.3       5 UNK         0.0660 
     19 N          27.2713    0.6714   -5.2730 N.am      5 UNK        -0.4015 
     20 C          27.3261    0.0915   -6.4803 C.2       4 UNK         0.4946 
     21 O          27.7802    0.6418   -7.4831 O.2       4 UNK        -0.5353 
     22 CA         26.7542   -1.3327   -6.6016 C.3       4 UNK         0.0277 
     23 CB         27.8384   -2.3613   -6.2463 C.3       4 UNK        -0.1981 
     24 N          25.5772   -1.5586   -5.7578 N.am      4 UNK        -0.4209 
     25 C          24.4408   -0.8482   -5.8300 C.2       3 UNK         0.4942 
     26 O          24.2285    0.0137   -6.6818 O.2       3 UNK        -0.5208 
     27 CA         23.3852   -1.0806   -4.7355 C.3       3 UNK         0.0250 
     28 CB         22.3063   -2.0558   -5.2311 C.3       3 UNK        -0.1990 
     29 N          23.9264   -1.5623   -3.4605 N.am      3 UNK        -0.4232 
     30 C          24.8792   -0.9663   -2.7275 C.2       2 UNK         0.4993 
     31 O          25.4395    0.0803   -3.0553 O.2       2 UNK        -0.5286 
     32 CA         25.2915   -1.6655   -1.4188 C.3       2 UNK         0.0209 
     33 CB         24.1686   -2.5408   -0.8171 C.3       2 UNK        -0.1931 
     34 N          26.5304   -2.4518   -1.5243 N.am      2 UNK        -0.4546 
     35 C          26.8363   -3.3951   -2.4300 C.2       1 UNK         0.5154 
     36 O          26.1712   -3.6313   -3.4421 O.2       1 UNK        -0.5181 
     37 C          26.8016    3.0785   -5.5657 C.2       5 UNK         0.5014 
     38 O          27.2671    4.0718   -6.1241 O.2       5 UNK        -0.5248 
     39 N          25.4872    2.8273   -5.4573 N.am      6 UNK        -0.4434 
     40 CA         24.4237    3.6627   -6.0228 C.3       6 UNK         0.0363 
     41 CB         23.0641    3.2189   -5.4594 C.3       6 UNK        -0.1936 
     42 C          24.4119    3.6381   -7.5607 C.2       6 UNK         0.5081 
     43 O          24.2075    4.6800   -8.1835 O.2       6 UNK        -0.5248 
     44 N          24.6669    2.4586   -8.1434 N.am      7 UNK        -0.4718 
     45 CA         24.8332    2.2499   -9.5848 C.3       7 UNK         0.0273 
     46 CB         24.7303    0.7441   -9.8800 C.3       7 UNK        -0.1935 
     47 C          26.1568    2.8080  -10.1433 C.2       7 UNK         0.5018 
     48 O          26.2809    2.9279  -11.3628 O.2       7 UNK        -0.5186 
     49 N          27.1149    3.1136   -9.2544 N.am      8 UNK        -0.4240 
     50 CA         28.4902    3.5459   -9.5259 C.3       8 UNK         0.0235 
     51 CB         28.5148    4.9346  -10.1998 C.3       8 UNK        -0.2000 
     52 C          29.2982    2.4795  -10.2912 C.2       8 UNK         0.4941 
     53 O          30.0506    2.8107  -11.2106 O.2       8 UNK        -0.5273 
     54 N          29.1190    1.2124   -9.8977 N.am      9 UNK        -0.4262 
     55 CA         29.8526    0.0626  -10.4202 C.3       9 UNK         0.0264 
     56 CB         29.0324   -1.2099  -10.1509 C.3       9 UNK        -0.1955 
     57 C          31.2407   -0.0373   -9.7691 C.2       9 UNK         0.5031 
     58 O          31.4568    0.4961   -8.6765 O.2       9 UNK        -0.5390 
     59 N          32.1532   -0.7570  -10.4326 N.am      10 UNK        -0.4204 
     60 CA         33.5334   -0.9872   -9.9955 C.3       10 UNK         0.0237 
     61 CB         34.3819   -1.3835  -11.2193 C.3       10 UNK        -0.1985 
     62 C          33.6284   -2.0145   -8.8480 C.2       10 UNK         0.4970 
     63 O          34.2446   -3.0683   -9.0173 O.2       10 UNK        -0.4914 
     64 N          33.0123   -1.6830   -7.7061 N.am      11 UNK        -0.4285 
     65 CA         33.0278   -2.4497   -6.4462 C.3       11 UNK         0.1007 
     66 C          32.3226   -3.8383   -6.5320 C.2       11 UNK         0.5703 
     67 N          31.3687   -4.0277   -7.4371 N.am      11 UNK        -0.7361 
     68 O          32.6254   -4.7518   -5.7686 O.2       11 UNK        -0.4986 
     69 C69        34.4487   -2.5170   -5.8117 C.3       12 UNK        -0.0947 
     70 S70        35.1373   -0.8547   -5.4951 S.3       12 UNK        -0.2240 
     71 C71        35.1182   -0.7660   -3.6772 C.3       12 UNK         0.0194 
     72 H72        26.9461   -5.3193    0.2277 H         1 UNK         0.0906 
     73 H73        25.4138   -5.3468   -0.6644 H         1 UNK         0.0906 
     74 H74        25.9487   -6.7608    0.2335 H         1 UNK         0.0906 
     75 H75        28.2671   -6.0673   -3.1500 H         1 UNK         0.3140 
     76 H76        28.3601   -4.1015   -1.0837 H         1 UNK         0.1085 
     77 H77        29.1353   -4.0318   -4.0326 H         1 UNK         0.0836 
     78 H78        29.4083   -2.6979   -2.9579 H         1 UNK         0.0836 
     79 H79        30.7987   -3.2003   -0.4796 H         1 UNK         0.0731 
     80 H80        32.3815   -3.8855   -0.7345 H         1 UNK         0.0731 
     81 H81        33.9560   -2.8898   -2.4197 H         1 UNK         0.1312 
     82 H82        33.1530    1.1271   -3.6928 H         1 UNK         0.1406 
     83 H83        30.2049   -1.0806   -1.4832 H         1 UNK         0.1631 
     84 H84        30.7553    1.8026   -3.7610 H         1 UNK         0.0717 
     85 H85        30.8422    2.1034   -2.0362 H         1 UNK         0.0717 
     86 H86        27.0323    2.4134   -2.9481 H         1 UNK         0.0934 
     87 H87        28.5477    3.1980   -3.3093 H         1 UNK         0.0934 
     88 H88        28.7185    2.1379   -5.4799 H         1 UNK         0.0739 
     89 H89        26.8341    0.1837   -4.4972 H         1 UNK         0.3093 
     90 H90        26.4539   -1.4851   -7.6401 H         1 UNK         0.0818 
     91 H91        28.1753   -2.2362   -5.2177 H         1 UNK         0.0819 
     92 H92        27.4755   -3.3829   -6.3611 H         1 UNK         0.0819 
     93 H93        28.7142   -2.2526   -6.8864 H         1 UNK         0.0819 
     94 H94        25.6662   -2.2498   -5.0200 H         1 UNK         0.3041 
     95 H95        22.9112   -0.1170   -4.5389 H         1 UNK         0.0784 
     96 H96        22.7142   -3.0517   -5.4095 H         1 UNK         0.0793 
     97 H97        21.8685   -1.7098   -6.1687 H         1 UNK         0.0793 
     98 H98        21.4926   -2.1485   -4.5115 H         1 UNK         0.0793 
     99 H99        23.5613   -2.4413   -3.1235 H         1 UNK         0.3024 
    100 H100       25.4933   -0.8608   -0.7092 H         1 UNK         0.1171 
    101 H101       24.4363   -2.8836    0.1826 H         1 UNK         0.0786 
    102 H102       23.2383   -1.9788   -0.7200 H         1 UNK         0.0786 
    103 H103       23.9617   -3.4253   -1.4203 H         1 UNK         0.0786 
    104 H104       27.1847   -2.2941   -0.7703 H         1 UNK         0.2977 
    105 H105       25.2001    1.9762   -4.9936 H         1 UNK         0.3127 
    106 H106       24.6038    4.6930   -5.7083 H         1 UNK         0.0770 
    107 H107       22.8211    2.1947   -5.7441 H         1 UNK         0.0814 
    108 H108       22.2626    3.8578   -5.8328 H         1 UNK         0.0814 
    109 H109       23.0451    3.2794   -4.3711 H         1 UNK         0.0814 
    110 H110       24.7321    1.6297   -7.5564 H         1 UNK         0.2983 
    111 H111       24.0188    2.7613  -10.1024 H         1 UNK         0.0947 
    112 H112       24.8057    0.5473  -10.9503 H         1 UNK         0.0806 
    113 H113       23.7773    0.3370   -9.5416 H         1 UNK         0.0806 
    114 H114       25.5268    0.1843   -9.3880 H         1 UNK         0.0806 
    115 H115       26.9011    2.9512   -8.2793 H         1 UNK         0.3000 
    116 H116       28.9713    3.6450   -8.5515 H         1 UNK         0.0850 
    117 H117       29.5354    5.3105  -10.2800 H         1 UNK         0.0810 
    118 H118       27.9457    5.6638   -9.6232 H         1 UNK         0.0810 
    119 H119       28.1002    4.9050  -11.2077 H         1 UNK         0.0810 
    120 H120       28.5494    1.0398   -9.0693 H         1 UNK         0.3040 
    121 H121       29.9759    0.1816  -11.4989 H         1 UNK         0.0766 
    122 H122       28.9039   -1.3845   -9.0831 H         1 UNK         0.0812 
    123 H123       29.5179   -2.0915  -10.5709 H         1 UNK         0.0812 
    124 H124       28.0404   -1.1431  -10.5982 H         1 UNK         0.0812 
    125 H125       31.8833   -1.1938  -11.3026 H         1 UNK         0.3205 
    126 H126       33.9344   -0.0465   -9.6113 H         1 UNK         0.0754 
    127 H127       34.3588   -0.6088  -11.9861 H         1 UNK         0.0769 
    128 H128       34.0334   -2.3136  -11.6704 H         1 UNK         0.0769 
    129 H129       35.4268   -1.5274  -10.9405 H         1 UNK         0.0769 
    130 H130       32.4871   -0.8128   -7.6977 H         1 UNK         0.2981 
    131 H131       32.4028   -1.8816   -5.7562 H         1 UNK         0.0541 
    132 H132       30.9144   -4.9252   -7.4907 H         1 UNK         0.3459 
    133 H133       31.1214   -3.2940   -8.0796 H         1 UNK         0.3459 
    134 H134       34.4308   -3.0764   -4.8759 H         1 UNK         0.0612 
    135 H135       35.1371   -3.0562   -6.4637 H         1 UNK         0.0612 
    136 H136       35.5707    0.1773   -3.3686 H         1 UNK         0.0624 
    137 H137       35.7565   -1.5547   -3.2757 H         1 UNK         0.0624 
@<TRIPOS>BOND
     1    1    2 1    
     2    1   72 1    
     3    1   73 1    
     4    1   74 1    
     5    2    3 2    
     6    2    4 am   BACKBONE|DICT|INTERRES
     7    4    5 1    
     8    4   75 1    
     9    5    6 1    
    10    5   35 1    
    11    5   76 1    
    12    6    7 1    
    13    6   77 1    
    14    6   78 1    
    15    7    8 1    
    16    8    9 1    
    17    8   79 1    
    18    8   80 1    
    19    9   10 ar   
    20    9   14 ar   
    21   10   11 ar   
    22   10   81 1    
    23   11   12 ar   
    24   11   71 1    
    25   12   13 ar   
    26   12   82 1    
    27   13   14 ar   
    28   13   15 1    
    29   14   83 1    
    30   15   16 1    
    31   15   84 1    
    32   15   85 1    
    33   16   17 1    
    34   17   18 1    
    35   17   86 1    
    36   17   87 1    
    37   18   19 1    
    38   18   37 1    
    39   18   88 1    
    40   19   20 am   BACKBONE|DICT|INTERRES
    41   19   89 1    
    42   20   21 2    
    43   20   22 1    
    44   22   23 1    
    45   22   24 1    
    46   22   90 1    
    47   23   91 1    
    48   23   92 1    
    49   23   93 1    
    50   24   25 am   BACKBONE|DICT|INTERRES
    51   24   94 1    
    52   25   26 2    
    53   25   27 1    
    54   27   28 1    
    55   27   29 1    
    56   27   95 1    
    57   28   96 1    
    58   28   97 1    
    59   28   98 1    
    60   29   30 am   BACKBONE|DICT|INTERRES
    61   29   99 1    
    62   30   31 2    
    63   30   32 1    
    64   32   33 1    
    65   32   34 1    
    66   32  100 1    
    67   33  101 1    
    68   33  102 1    
    69   33  103 1    
    70   34   35 am   BACKBONE|DICT|INTERRES
    71   34  104 1    
    72   35   36 2    
    73   37   38 2    
    74   37   39 am   BACKBONE|DICT|INTERRES
    75   39   40 1    
    76   39  105 1    
    77   40   41 1    
    78   40   42 1    
    79   40  106 1    
    80   41  107 1    
    81   41  108 1    
    82   41  109 1    
    83   42   43 2    
    84   42   44 am   BACKBONE|DICT|INTERRES
    85   44   45 1    
    86   44  110 1    
    87   45   46 1    
    88   45   47 1    
    89   45  111 1    
    90   46  112 1    
    91   46  113 1    
    92   46  114 1    
    93   47   48 2    
    94   47   49 am   BACKBONE|DICT|INTERRES
    95   49   50 1    
    96   49  115 1    
    97   50   51 1    
    98   50   52 1    
    99   50  116 1    
   100   51  117 1    
   101   51  118 1    
   102   51  119 1    
   103   52   53 2    
   104   52   54 am   BACKBONE|DICT|INTERRES
   105   54   55 1    
   106   54  120 1    
   107   55   56 1    
   108   55   57 1    
   109   55  121 1    
   110   56  122 1    
   111   56  123 1    
   112   56  124 1    
   113   57   58 2    
   114   57   59 am   BACKBONE|DICT|INTERRES
   115   59   60 1    
   116   59  125 1    
   117   60   61 1    
   118   60   62 1    
   119   60  126 1    
   120   61  127 1    
   121   61  128 1    
   122   61  129 1    
   123   62   63 2    
   124   62   64 am   BACKBONE|DICT|INTERRES
   125   64   65 1    
   126   64  130 1    
   127   65   66 1    
   128   65   69 1    
   129   65  131 1    
   130   66   67 am   BACKBONE|DICT|INTERRES
   131   66   68 2    
   132   67  132 1    
   133   67  133 1    
   134   69   70 1    
   135   69  134 1    
   136   69  135 1    
   137   70   71 1    
   138   71  136 1    
   139   71  137 1    
@<TRIPOS>SUBSTRUCTURE
     1 UNK         1 GROUP             0       ****    0 ROOT    
