@<TRIPOS>MOLECULE
3R137
137   139    1
SMALL
USER_CHARGES


@<TRIPOS>ATOM
      1 CA         24.8746   -5.7277   -4.7073 C.3       0 UNK        -0.2020 
      2 C          25.0887   -4.8249   -3.5024 C.2       0 UNK         0.4855 
      3 O          24.1245   -4.2421   -3.0077 O.2       0 UNK        -0.5197 
      4 N          26.3452   -4.7000   -3.0505 N.am      1 UNK        -0.4892 
      5 CA         26.8344   -3.9446   -1.8863 C.3       1 UNK         0.0835 
      6 C6         28.3832   -3.8736   -1.8712 C.3       12 UNK        -0.0855 
      7 S7         29.2482   -5.4539   -2.1696 S.3       12 UNK        -0.2931 
      8 C8         31.0015   -4.9354   -2.0841 C.3       12 UNK         0.0378 
      9 C9         31.2618   -3.6231   -2.8162 C.ar      12 UNK        -0.0802 
     10 C10        31.2949   -3.5842   -4.2129 C.ar      12 UNK        -0.0944 
     11 C11        31.4610   -2.3685   -4.8834 C.ar      12 UNK        -0.0787 
     12 C12        31.5984   -1.1891   -4.1470 C.ar      12 UNK        -0.0862 
     13 C13        31.5559   -1.2094   -2.7494 C.ar      12 UNK        -0.0733 
     14 C14        31.4049   -2.4343   -2.0921 C.ar      12 UNK        -0.0832 
     15 C15        31.6641    0.0755   -1.9287 C.3       12 UNK         0.0240 
     16 S16        30.7538    1.5068   -2.6147 S.3       12 UNK        -0.2522 
     17 C17        29.0629    0.8538   -2.8451 C.3       12 UNK        -0.0967 
     18 CA         28.6329    0.9134   -4.3359 C.3       5 UNK         0.0660 
     19 N          27.7917   -0.2215   -4.7171 N.am      5 UNK        -0.4015 
     20 C          27.5952   -0.6145   -5.9825 C.2       4 UNK         0.4946 
     21 O          28.1266   -0.0842   -6.9592 O.2       4 UNK        -0.5353 
     22 CA         26.6306   -1.7870   -6.2042 C.3       4 UNK         0.0277 
     23 CB         27.3631   -3.1221   -6.0016 C.3       4 UNK        -0.1981 
     24 N          25.4335   -1.7353   -5.3573 N.am      4 UNK        -0.4209 
     25 C          24.4811   -0.7942   -5.4375 C.2       3 UNK         0.4942 
     26 O          24.5553    0.1904   -6.1705 O.2       3 UNK        -0.5208 
     27 CA         23.2395   -0.9799   -4.5511 C.3       3 UNK         0.0250 
     28 CB         22.3055   -2.0497   -5.1398 C.3       3 UNK        -0.1990 
     29 N          23.5994   -1.3382   -3.1796 N.am      3 UNK        -0.4232 
     30 C          23.9950   -0.4493   -2.2567 C.2       2 UNK         0.4993 
     31 O          24.0030    0.7677   -2.4372 O.2       2 UNK        -0.5286 
     32 CA         24.5118   -1.0072   -0.9166 C.3       2 UNK         0.0209 
     33 CB         23.3595   -1.1427    0.0916 C.3       2 UNK        -0.1931 
     34 N          25.2124   -2.2919   -1.0339 N.am      2 UNK        -0.4546 
     35 C          26.2718   -2.5083   -1.8254 C.2       1 UNK         0.5154 
     36 O          26.7782   -1.6332   -2.5318 O.2       1 UNK        -0.5181 
     37 C          27.9712    2.2591   -4.7003 C.2       5 UNK         0.5014 
     38 O          28.6736    3.1826   -5.1117 O.2       5 UNK        -0.5248 
     39 N          26.6354    2.3427   -4.5828 N.am      6 UNK        -0.4434 
     40 CA         25.8444    3.5136   -4.9763 C.3       6 UNK         0.0363 
     41 CB         24.4202    3.4003   -4.4115 C.3       6 UNK        -0.1936 
     42 C          25.8116    3.7141   -6.5003 C.2       6 UNK         0.5081 
     43 O          25.9407    4.8465   -6.9658 O.2       6 UNK        -0.5248 
     44 N          25.6708    2.6118   -7.2497 N.am      7 UNK        -0.4718 
     45 CA         25.7512    2.5817   -8.7131 C.3       7 UNK         0.0273 
     46 CB         25.1907    1.2404   -9.2144 C.3       7 UNK        -0.1935 
     47 C          27.1790    2.7887   -9.2520 C.2       7 UNK         0.5018 
     48 O          27.3270    3.1358  -10.4242 O.2       7 UNK        -0.5186 
     49 N          28.1864    2.5511   -8.3980 N.am      8 UNK        -0.4240 
     50 CA         29.6246    2.5309   -8.6783 C.3       8 UNK         0.0235 
     51 CB         30.1417    3.9343   -9.0575 C.3       8 UNK        -0.2000 
     52 C          29.9745    1.4484   -9.7150 C.2       8 UNK         0.4941 
     53 O          30.6182    1.7358  -10.7276 O.2       8 UNK        -0.5273 
     54 N          29.5037    0.2202   -9.4583 N.am      9 UNK        -0.4262 
     55 CA         29.5700   -0.9410  -10.3513 C.3       9 UNK         0.0264 
     56 CB         28.5504   -1.9862   -9.8608 C.3       9 UNK        -0.1955 
     57 C          30.9919   -1.5240  -10.4958 C.2       9 UNK         0.5031 
     58 O          31.2255   -2.6714  -10.1157 O.2       9 UNK        -0.5390 
     59 N          31.9106   -0.7118  -11.0382 N.am      10 UNK        -0.4204 
     60 CA         33.3471   -0.9624  -11.2391 C.3       10 UNK         0.0237 
     61 CB         33.5872   -2.1737  -12.1660 C.3       10 UNK        -0.1985 
     62 C          34.1528   -1.0464   -9.9249 C.2       10 UNK         0.4970 
     63 O          35.2603   -1.5868   -9.9179 O.2       10 UNK        -0.4914 
     64 N          33.5984   -0.4814   -8.8497 N.am      11 UNK        -0.4285 
     65 CA         34.1614   -0.3998   -7.4997 C.3       11 UNK         0.1007 
     66 C          33.4415    0.7089   -6.6912 C.2       11 UNK         0.5703 
     67 N          34.0156    1.1405   -5.5768 N.am      11 UNK        -0.7361 
     68 O          32.3652    1.1767   -7.0578 O.2       11 UNK        -0.4986 
     69 C69        34.2391   -1.7660   -6.7425 C.3       12 UNK        -0.0947 
     70 S70        32.9594   -3.0144   -7.1320 S.3       12 UNK        -0.2240 
     71 C71        31.4438   -2.3246   -6.4030 C.3       12 UNK         0.0194 
     72 H72        25.8040   -6.1829   -5.0489 H         1 UNK         0.0906 
     73 H73        24.1794   -6.5278   -4.4545 H         1 UNK         0.0906 
     74 H74        24.4504   -5.1583   -5.5339 H         1 UNK         0.0906 
     75 H75        27.0751   -5.2257   -3.5120 H         1 UNK         0.3140 
     76 H76        26.5099   -4.4823   -0.9935 H         1 UNK         0.1085 
     77 H77        28.7186   -3.1865   -2.6496 H         1 UNK         0.0836 
     78 H78        28.7343   -3.4597   -0.9238 H         1 UNK         0.0836 
     79 H79        31.6268   -5.7220   -2.5088 H         1 UNK         0.0731 
     80 H80        31.2917   -4.8498   -1.0357 H         1 UNK         0.0731 
     81 H81        31.1671   -4.4969   -4.7790 H         1 UNK         0.1312 
     82 H82        31.7108   -0.2470   -4.6620 H         1 UNK         0.1406 
     83 H83        31.3655   -2.4606   -1.0114 H         1 UNK         0.1631 
     84 H84        32.7177    0.3435   -1.8419 H         1 UNK         0.0717 
     85 H85        31.3048   -0.0928   -0.9123 H         1 UNK         0.0717 
     86 H86        29.0415   -0.1753   -2.4838 H         1 UNK         0.0934 
     87 H87        28.3712    1.3967   -2.1977 H         1 UNK         0.0934 
     88 H88        29.5318    0.8361   -4.9524 H         1 UNK         0.0739 
     89 H89        27.3423   -0.7354   -3.9589 H         1 UNK         0.3093 
     90 H90        26.2969   -1.7396   -7.2431 H         1 UNK         0.0818 
     91 H91        27.7385   -3.2277   -4.9836 H         1 UNK         0.0819 
     92 H92        26.7155   -3.9701   -6.2202 H         1 UNK         0.0819 
     93 H93        28.2216   -3.1993   -6.6683 H         1 UNK         0.0819 
     94 H94        25.3189   -2.4737   -4.6802 H         1 UNK         0.3041 
     95 H95        22.6949   -0.0329   -4.5389 H         1 UNK         0.0784 
     96 H96        22.0142   -1.7938   -6.1595 H         1 UNK         0.0793 
     97 H97        22.7769   -3.0325   -5.1718 H         1 UNK         0.0793 
     98 H98        21.3899   -2.1387   -4.5548 H         1 UNK         0.0793 
     99 H99        23.6509   -2.3291   -2.9565 H         1 UNK         0.3024 
    100 H100       25.2279   -0.2809   -0.5256 H         1 UNK         0.1171 
    101 H101       22.8331   -0.1946    0.2121 H         1 UNK         0.0786 
    102 H102       23.7249   -1.4352    1.0762 H         1 UNK         0.0786 
    103 H103       22.6269   -1.8839   -0.2303 H         1 UNK         0.0786 
    104 H104       24.8160   -3.0719   -0.5291 H         1 UNK         0.2977 
    105 H105       26.1207    1.5385   -4.2523 H         1 UNK         0.3127 
    106 H106       26.3110    4.3982   -4.5372 H         1 UNK         0.0770 
    107 H107       23.9071    2.5103   -4.7775 H         1 UNK         0.0814 
    108 H108       23.8177    4.2642   -4.6952 H         1 UNK         0.0814 
    109 H109       24.4291    3.3569   -3.3224 H         1 UNK         0.0814 
    110 H110       25.4779    1.7248   -6.7885 H         1 UNK         0.2983 
    111 H111       25.1297    3.3877   -9.1091 H         1 UNK         0.0947 
    112 H112       25.2062    1.1906  -10.3040 H         1 UNK         0.0806 
    113 H113       24.1573    1.0988   -8.8975 H         1 UNK         0.0806 
    114 H114       25.7735    0.3976   -8.8398 H         1 UNK         0.0806 
    115 H115       27.9282    2.2259   -7.4756 H         1 UNK         0.3000 
    116 H116       30.1067    2.2412   -7.7443 H         1 UNK         0.0850 
    117 H117       31.2278    3.9316   -9.1566 H         1 UNK         0.0810 
    118 H118       29.8870    4.6681   -8.2929 H         1 UNK         0.0810 
    119 H119       29.7295    4.2791  -10.0062 H         1 UNK         0.0810 
    120 H120       29.0040    0.0827   -8.5800 H         1 UNK         0.3040 
    121 H121       29.2562   -0.6175  -11.3460 H         1 UNK         0.0766 
    122 H122       27.5419   -1.5737   -9.8275 H         1 UNK         0.0812 
    123 H123       28.7980   -2.3461   -8.8619 H         1 UNK         0.0812 
    124 H124       28.5252   -2.8518  -10.5240 H         1 UNK         0.0812 
    125 H125       31.5949    0.2367  -11.2406 H         1 UNK         0.3205 
    126 H126       33.7268   -0.0805  -11.7569 H         1 UNK         0.0754 
    127 H127       34.6377   -2.2468  -12.4501 H         1 UNK         0.0769 
    128 H128       33.0097   -2.0904  -13.0866 H         1 UNK         0.0769 
    129 H129       33.3180   -3.1136  -11.6834 H         1 UNK         0.0769 
    130 H130       32.6985   -0.0304   -8.9401 H         1 UNK         0.2981 
    131 H131       35.1824   -0.0333   -7.6226 H         1 UNK         0.0541 
    132 H132       33.5592    1.8632   -5.0434 H         1 UNK         0.3459 
    133 H133       34.8992    0.7699   -5.2645 H         1 UNK         0.3459 
    134 H134       35.1907   -2.2353   -6.9950 H         1 UNK         0.0612 
    135 H135       34.2756   -1.6303   -5.6603 H         1 UNK         0.0612 
    136 H136       30.5985   -2.9101   -6.7649 H         1 UNK         0.0624 
    137 H137       31.2797   -1.3118   -6.7713 H         1 UNK         0.0624 
@<TRIPOS>BOND
     1    1    2 1    
     2    1   72 1    
     3    1   73 1    
     4    1   74 1    
     5    2    3 2    
     6    2    4 am   BACKBONE|DICT|INTERRES
     7    4    5 1    
     8    4   75 1    
     9    5    6 1    
    10    5   35 1    
    11    5   76 1    
    12    6    7 1    
    13    6   77 1    
    14    6   78 1    
    15    7    8 1    
    16    8    9 1    
    17    8   79 1    
    18    8   80 1    
    19    9   10 ar   
    20    9   14 ar   
    21   10   11 ar   
    22   10   81 1    
    23   11   12 ar   
    24   11   71 1    
    25   12   13 ar   
    26   12   82 1    
    27   13   14 ar   
    28   13   15 1    
    29   14   83 1    
    30   15   16 1    
    31   15   84 1    
    32   15   85 1    
    33   16   17 1    
    34   17   18 1    
    35   17   86 1    
    36   17   87 1    
    37   18   19 1    
    38   18   37 1    
    39   18   88 1    
    40   19   20 am   BACKBONE|DICT|INTERRES
    41   19   89 1    
    42   20   21 2    
    43   20   22 1    
    44   22   23 1    
    45   22   24 1    
    46   22   90 1    
    47   23   91 1    
    48   23   92 1    
    49   23   93 1    
    50   24   25 am   BACKBONE|DICT|INTERRES
    51   24   94 1    
    52   25   26 2    
    53   25   27 1    
    54   27   28 1    
    55   27   29 1    
    56   27   95 1    
    57   28   96 1    
    58   28   97 1    
    59   28   98 1    
    60   29   30 am   BACKBONE|DICT|INTERRES
    61   29   99 1    
    62   30   31 2    
    63   30   32 1    
    64   32   33 1    
    65   32   34 1    
    66   32  100 1    
    67   33  101 1    
    68   33  102 1    
    69   33  103 1    
    70   34   35 am   BACKBONE|DICT|INTERRES
    71   34  104 1    
    72   35   36 2    
    73   37   38 2    
    74   37   39 am   BACKBONE|DICT|INTERRES
    75   39   40 1    
    76   39  105 1    
    77   40   41 1    
    78   40   42 1    
    79   40  106 1    
    80   41  107 1    
    81   41  108 1    
    82   41  109 1    
    83   42   43 2    
    84   42   44 am   BACKBONE|DICT|INTERRES
    85   44   45 1    
    86   44  110 1    
    87   45   46 1    
    88   45   47 1    
    89   45  111 1    
    90   46  112 1    
    91   46  113 1    
    92   46  114 1    
    93   47   48 2    
    94   47   49 am   BACKBONE|DICT|INTERRES
    95   49   50 1    
    96   49  115 1    
    97   50   51 1    
    98   50   52 1    
    99   50  116 1    
   100   51  117 1    
   101   51  118 1    
   102   51  119 1    
   103   52   53 2    
   104   52   54 am   BACKBONE|DICT|INTERRES
   105   54   55 1    
   106   54  120 1    
   107   55   56 1    
   108   55   57 1    
   109   55  121 1    
   110   56  122 1    
   111   56  123 1    
   112   56  124 1    
   113   57   58 2    
   114   57   59 am   BACKBONE|DICT|INTERRES
   115   59   60 1    
   116   59  125 1    
   117   60   61 1    
   118   60   62 1    
   119   60  126 1    
   120   61  127 1    
   121   61  128 1    
   122   61  129 1    
   123   62   63 2    
   124   62   64 am   BACKBONE|DICT|INTERRES
   125   64   65 1    
   126   64  130 1    
   127   65   66 1    
   128   65   69 1    
   129   65  131 1    
   130   66   67 am   BACKBONE|DICT|INTERRES
   131   66   68 2    
   132   67  132 1    
   133   67  133 1    
   134   69   70 1    
   135   69  134 1    
   136   69  135 1    
   137   70   71 1    
   138   71  136 1    
   139   71  137 1    
@<TRIPOS>SUBSTRUCTURE
     1 UNK         1 GROUP             0       ****    0 ROOT    
