@<TRIPOS>MOLECULE
3R137
137   139    1
SMALL
USER_CHARGES


@<TRIPOS>ATOM
      1 CA         26.5171   -5.6370    0.9939 C.3       0 UNK        -0.2020 
      2 C          27.6875   -5.3980    0.0438 C.2       0 UNK         0.4855 
      3 O          28.1202   -6.3305   -0.6291 O.2       0 UNK        -0.5197 
      4 N          28.2412   -4.1807   -0.0522 N.am      1 UNK        -0.4892 
      5 CA         27.8324   -2.9446    0.6296 C.3       1 UNK         0.0835 
      6 C6         28.9795   -1.8980    0.6288 C.3       12 UNK        -0.0855 
      7 S7         29.4253   -1.2593   -1.0254 S.3       12 UNK        -0.2931 
      8 C8         30.7996   -2.3472   -1.5163 C.3       12 UNK         0.0378 
      9 C9         30.6977   -2.6941   -2.9938 C.ar      12 UNK        -0.0802 
     10 C10        31.5357   -2.0823   -3.9300 C.ar      12 UNK        -0.0944 
     11 C11        31.4292   -2.3847   -5.2965 C.ar      12 UNK        -0.0787 
     12 C12        30.4674   -3.3165   -5.7084 C.ar      12 UNK        -0.0862 
     13 C13        29.6280   -3.9390   -4.7794 C.ar      12 UNK        -0.0733 
     14 C14        29.7516   -3.6251   -3.4263 C.ar      12 UNK        -0.0832 
     15 C15        28.5909   -4.9635   -5.2124 C.3       12 UNK         0.0240 
     16 S16        26.9284   -4.2282   -5.3410 S.3       12 UNK        -0.2522 
     17 C17        26.8185   -3.8397   -7.1190 C.3       12 UNK        -0.0967 
     18 CA         26.5745   -2.3516   -7.4600 C.3       5 UNK         0.0660 
     19 N          25.3373   -1.7996   -6.9031 N.am      5 UNK        -0.4015 
     20 C          24.7149   -0.7352   -7.4326 C.2       4 UNK         0.4946 
     21 O          25.1169   -0.1340   -8.4307 O.2       4 UNK        -0.5353 
     22 CA         23.4517   -0.2356   -6.7154 C.3       4 UNK         0.0277 
     23 CB         22.2997   -1.2459   -6.8478 C.3       4 UNK        -0.1981 
     24 N          23.6840    0.0733   -5.3039 N.am      4 UNK        -0.4209 
     25 C          24.5352    1.0064   -4.8524 C.2       3 UNK         0.4942 
     26 O          25.2258    1.7177   -5.5802 O.2       3 UNK        -0.5208 
     27 CA         24.6476    1.1705   -3.3272 C.3       3 UNK         0.0250 
     28 CB         23.6621    2.2408   -2.8311 C.3       3 UNK        -0.1990 
     29 N          24.4445   -0.0679   -2.5687 N.am      3 UNK        -0.4232 
     30 C          25.1949   -1.1718   -2.6842 C.2       2 UNK         0.4993 
     31 O          26.1037   -1.3067   -3.5075 O.2       2 UNK        -0.5286 
     32 CA         24.8426   -2.3318   -1.7453 C.3       2 UNK         0.0209 
     33 CB         24.1967   -3.4899   -2.5229 C.3       2 UNK        -0.1931 
     34 N          26.0531   -2.8084   -1.0816 N.am      2 UNK        -0.4546 
     35 C          26.5032   -2.3561    0.0976 C.2       1 UNK         0.5154 
     36 O          25.9020   -1.5234    0.7782 O.2       1 UNK        -0.5181 
     37 C          27.7902   -1.4520   -7.1802 C.2       5 UNK         0.5014 
     38 O          28.6653   -1.3694   -8.0426 O.2       5 UNK        -0.5248 
     39 N          27.8044   -0.7490   -6.0354 N.am      6 UNK        -0.4434 
     40 CA         28.8223    0.2543   -5.7132 C.3       6 UNK         0.0363 
     41 CB         28.6253    0.7786   -4.2864 C.3       6 UNK        -0.1936 
     42 C          28.8609    1.4126   -6.7219 C.2       6 UNK         0.5081 
     43 O          29.9503    1.8467   -7.0955 O.2       6 UNK        -0.5248 
     44 N          27.6861    1.8683   -7.1757 N.am      7 UNK        -0.4718 
     45 CA         27.5530    2.8357   -8.2624 C.3       7 UNK         0.0273 
     46 CB         26.1231    3.3989   -8.2917 C.3       7 UNK        -0.1935 
     47 C          27.9370    2.2285   -9.6206 C.2       7 UNK         0.5018 
     48 O          28.7641    2.8108  -10.3223 O.2       7 UNK        -0.5186 
     49 N          27.3472    1.0719   -9.9630 N.am      8 UNK        -0.4240 
     50 CA         27.5162    0.4076  -11.2615 C.3       8 UNK         0.0235 
     51 CB         26.5648   -0.7939  -11.3677 C.3       8 UNK        -0.2000 
     52 C          28.9603   -0.0213  -11.5717 C.2       8 UNK         0.4941 
     53 O          29.4125    0.1764  -12.7001 O.2       8 UNK        -0.5273 
     54 N          29.6623   -0.5781  -10.5752 N.am      9 UNK        -0.4262 
     55 CA         31.0665   -0.9882  -10.6827 C.3       9 UNK         0.0264 
     56 CB         31.2801   -2.2834   -9.8812 C.3       9 UNK        -0.1955 
     57 C          32.0562    0.1231  -10.2763 C.2       9 UNK         0.5031 
     58 O          33.2618   -0.1297  -10.2732 O.2       9 UNK        -0.5390 
     59 N          31.5470    1.3287   -9.9771 N.am      10 UNK        -0.4204 
     60 CA         32.2835    2.5667   -9.6973 C.3       10 UNK         0.0237 
     61 CB         33.0095    3.0628  -10.9667 C.3       10 UNK        -0.1985 
     62 C          33.2054    2.4970   -8.4630 C.2       10 UNK         0.4970 
     63 O          34.3104    3.0437   -8.4906 O.2       10 UNK        -0.4914 
     64 N          32.7179    1.8677   -7.3883 N.am      11 UNK        -0.4285 
     65 CA         33.2974    1.9792   -6.0410 C.3       11 UNK         0.1007 
     66 C          32.8414    3.2771   -5.3176 C.2       11 UNK         0.5703 
     67 N          31.6650    3.8166   -5.6201 N.am      11 UNK        -0.7361 
     68 O          33.5684    3.8033   -4.4787 O.2       11 UNK        -0.4986 
     69 C69        32.9858    0.7437   -5.1609 C.3       12 UNK        -0.0947 
     70 S70        33.7521   -0.7879   -5.7877 S.3       12 UNK        -0.2240 
     71 C71        32.2947   -1.7179   -6.3720 C.3       12 UNK         0.0194 
     72 H72        26.7463   -5.2940    2.0018 H         1 UNK         0.0906 
     73 H73        25.6185   -5.1317    0.6425 H         1 UNK         0.0906 
     74 H74        26.2923   -6.7015    1.0564 H         1 UNK         0.0906 
     75 H75        29.0299   -4.0688   -0.6697 H         1 UNK         0.3140 
     76 H76        27.6476   -3.1930    1.6763 H         1 UNK         0.1085 
     77 H77        29.8675   -2.3149    1.1070 H         1 UNK         0.0836 
     78 H78        28.6989   -1.0435    1.2479 H         1 UNK         0.0836 
     79 H79        30.7990   -3.2660   -0.9292 H         1 UNK         0.0731 
     80 H80        31.7444   -1.8474   -1.2969 H         1 UNK         0.0731 
     81 H81        32.2603   -1.3637   -3.5788 H         1 UNK         0.1312 
     82 H82        30.3646   -3.5510   -6.7591 H         1 UNK         0.1406 
     83 H83        29.0939   -4.1016   -2.7147 H         1 UNK         0.1631 
     84 H84        28.5522   -5.7664   -4.4745 H         1 UNK         0.0717 
     85 H85        28.8813   -5.4409   -6.1491 H         1 UNK         0.0717 
     86 H86        27.7124   -4.1911   -7.6372 H         1 UNK         0.0934 
     87 H87        26.0021   -4.4365   -7.5286 H         1 UNK         0.0934 
     88 H88        26.4510   -2.3344   -8.5438 H         1 UNK         0.0739 
     89 H89        24.9910   -2.2198   -6.0527 H         1 UNK         0.3093 
     90 H90        23.1451    0.6907   -7.2064 H         1 UNK         0.0818 
     91 H91        21.3707   -0.8409   -6.4460 H         1 UNK         0.0819 
     92 H92        22.1158   -1.4917   -7.8948 H         1 UNK         0.0819 
     93 H93        22.5106   -2.1800   -6.3259 H         1 UNK         0.0819 
     94 H94        23.1594   -0.4582   -4.6252 H         1 UNK         0.3041 
     95 H95        25.6583    1.5193   -3.1101 H         1 UNK         0.0784 
     96 H96        23.8085    3.1819   -3.3635 H         1 UNK         0.0793 
     97 H97        22.6251    1.9386   -2.9834 H         1 UNK         0.0793 
     98 H98        23.8006    2.4480   -1.7698 H         1 UNK         0.0793 
     99 H99        23.7133   -0.0485   -1.8721 H         1 UNK         0.3024 
    100 H100       24.1258   -1.9879   -0.9958 H         1 UNK         0.1171 
    101 H101       23.2877   -3.1631   -3.0295 H         1 UNK         0.0786 
    102 H102       24.8667   -3.8922   -3.2821 H         1 UNK         0.0786 
    103 H103       23.9203   -4.3072   -1.8566 H         1 UNK         0.0786 
    104 H104       26.6425   -3.4324   -1.6132 H         1 UNK         0.2977 
    105 H105       27.0849   -0.9140   -5.3382 H         1 UNK         0.3127 
    106 H106       29.7877   -0.2461   -5.7547 H         1 UNK         0.0770 
    107 H107       27.6960    1.3374   -4.1888 H         1 UNK         0.0814 
    108 H108       29.4406    1.4440   -4.0000 H         1 UNK         0.0814 
    109 H109       28.6044   -0.0398   -3.5678 H         1 UNK         0.0814 
    110 H110       26.8253    1.5142   -6.7682 H         1 UNK         0.2983 
    111 H111       28.2364    3.6649   -8.0652 H         1 UNK         0.0947 
    112 H112       26.0031    4.1216   -9.0999 H         1 UNK         0.0806 
    113 H113       25.8829    3.9109   -7.3597 H         1 UNK         0.0806 
    114 H114       25.3795    2.6148   -8.4388 H         1 UNK         0.0806 
    115 H115       26.6660    0.6642   -9.3267 H         1 UNK         0.3000 
    116 H116       27.2237    1.1311  -12.0256 H         1 UNK         0.0850 
    117 H117       26.8216   -1.5738  -10.6523 H         1 UNK         0.0810 
    118 H118       26.6111   -1.2395  -12.3623 H         1 UNK         0.0810 
    119 H119       25.5295   -0.5012  -11.1918 H         1 UNK         0.0810 
    120 H120       29.2153   -0.7349   -9.6713 H         1 UNK         0.3040 
    121 H121       31.2931   -1.2218  -11.7250 H         1 UNK         0.0766 
    122 H122       30.9995   -2.1626   -8.8383 H         1 UNK         0.0812 
    123 H123       32.3224   -2.6037   -9.9083 H         1 UNK         0.0812 
    124 H124       30.6819   -3.0983  -10.2888 H         1 UNK         0.0812 
    125 H125       30.5398    1.4320  -10.0061 H         1 UNK         0.3205 
    126 H126       31.5227    3.3089   -9.4504 H         1 UNK         0.0754 
    127 H127       33.4436    4.0511  -10.8101 H         1 UNK         0.0769 
    128 H128       32.3224    3.1433  -11.8092 H         1 UNK         0.0769 
    129 H129       33.8199    2.3932  -11.2568 H         1 UNK         0.0769 
    130 H130       31.7559    1.5425   -7.4254 H         1 UNK         0.2981 
    131 H131       34.3833    2.0426   -6.1345 H         1 UNK         0.0541 
    132 H132       31.0429    3.3453   -6.2660 H         1 UNK         0.3459 
    133 H133       31.3724    4.6614   -5.1563 H         1 UNK         0.3459 
    134 H134       31.9078    0.6110   -5.0608 H         1 UNK         0.0612 
    135 H135       33.3661    0.8929   -4.1485 H         1 UNK         0.0612 
    136 H136       32.6569   -2.4881   -7.0541 H         1 UNK         0.0624 
    137 H137       31.6734   -1.0448   -6.9634 H         1 UNK         0.0624 
@<TRIPOS>BOND
     1    1    2 1    
     2    1   72 1    
     3    1   73 1    
     4    1   74 1    
     5    2    3 2    
     6    2    4 am   BACKBONE|DICT|INTERRES
     7    4    5 1    
     8    4   75 1    
     9    5    6 1    
    10    5   35 1    
    11    5   76 1    
    12    6    7 1    
    13    6   77 1    
    14    6   78 1    
    15    7    8 1    
    16    8    9 1    
    17    8   79 1    
    18    8   80 1    
    19    9   10 ar   
    20    9   14 ar   
    21   10   11 ar   
    22   10   81 1    
    23   11   12 ar   
    24   11   71 1    
    25   12   13 ar   
    26   12   82 1    
    27   13   14 ar   
    28   13   15 1    
    29   14   83 1    
    30   15   16 1    
    31   15   84 1    
    32   15   85 1    
    33   16   17 1    
    34   17   18 1    
    35   17   86 1    
    36   17   87 1    
    37   18   19 1    
    38   18   37 1    
    39   18   88 1    
    40   19   20 am   BACKBONE|DICT|INTERRES
    41   19   89 1    
    42   20   21 2    
    43   20   22 1    
    44   22   23 1    
    45   22   24 1    
    46   22   90 1    
    47   23   91 1    
    48   23   92 1    
    49   23   93 1    
    50   24   25 am   BACKBONE|DICT|INTERRES
    51   24   94 1    
    52   25   26 2    
    53   25   27 1    
    54   27   28 1    
    55   27   29 1    
    56   27   95 1    
    57   28   96 1    
    58   28   97 1    
    59   28   98 1    
    60   29   30 am   BACKBONE|DICT|INTERRES
    61   29   99 1    
    62   30   31 2    
    63   30   32 1    
    64   32   33 1    
    65   32   34 1    
    66   32  100 1    
    67   33  101 1    
    68   33  102 1    
    69   33  103 1    
    70   34   35 am   BACKBONE|DICT|INTERRES
    71   34  104 1    
    72   35   36 2    
    73   37   38 2    
    74   37   39 am   BACKBONE|DICT|INTERRES
    75   39   40 1    
    76   39  105 1    
    77   40   41 1    
    78   40   42 1    
    79   40  106 1    
    80   41  107 1    
    81   41  108 1    
    82   41  109 1    
    83   42   43 2    
    84   42   44 am   BACKBONE|DICT|INTERRES
    85   44   45 1    
    86   44  110 1    
    87   45   46 1    
    88   45   47 1    
    89   45  111 1    
    90   46  112 1    
    91   46  113 1    
    92   46  114 1    
    93   47   48 2    
    94   47   49 am   BACKBONE|DICT|INTERRES
    95   49   50 1    
    96   49  115 1    
    97   50   51 1    
    98   50   52 1    
    99   50  116 1    
   100   51  117 1    
   101   51  118 1    
   102   51  119 1    
   103   52   53 2    
   104   52   54 am   BACKBONE|DICT|INTERRES
   105   54   55 1    
   106   54  120 1    
   107   55   56 1    
   108   55   57 1    
   109   55  121 1    
   110   56  122 1    
   111   56  123 1    
   112   56  124 1    
   113   57   58 2    
   114   57   59 am   BACKBONE|DICT|INTERRES
   115   59   60 1    
   116   59  125 1    
   117   60   61 1    
   118   60   62 1    
   119   60  126 1    
   120   61  127 1    
   121   61  128 1    
   122   61  129 1    
   123   62   63 2    
   124   62   64 am   BACKBONE|DICT|INTERRES
   125   64   65 1    
   126   64  130 1    
   127   65   66 1    
   128   65   69 1    
   129   65  131 1    
   130   66   67 am   BACKBONE|DICT|INTERRES
   131   66   68 2    
   132   67  132 1    
   133   67  133 1    
   134   69   70 1    
   135   69  134 1    
   136   69  135 1    
   137   70   71 1    
   138   71  136 1    
   139   71  137 1    
@<TRIPOS>SUBSTRUCTURE
     1 UNK         1 GROUP             0       ****    0 ROOT    
