@<TRIPOS>MOLECULE
3R137
137   139    1
SMALL
USER_CHARGES


@<TRIPOS>ATOM
      1 CA         25.5798   -3.8572    2.5690 C.3       0 UNK        -0.2020 
      2 C          26.2129   -4.9771    1.7465 C.2       0 UNK         0.4855 
      3 O          25.8107   -6.1293    1.8941 O.2       0 UNK        -0.5197 
      4 N          27.2043   -4.7111    0.8822 N.am      1 UNK        -0.4892 
      5 CA         27.7631   -3.3981    0.5312 C.3       1 UNK         0.0835 
      6 C6         29.0744   -3.5644   -0.2770 C.3       12 UNK        -0.0855 
      7 S7         30.0998   -2.0553   -0.3569 S.3       12 UNK        -0.2931 
      8 C8         29.6080   -1.3114   -1.9477 C.3       12 UNK         0.0378 
      9 C9         30.1337   -2.0839   -3.1502 C.ar      12 UNK        -0.0802 
     10 C10        31.4002   -1.7989   -3.6675 C.ar      12 UNK        -0.0944 
     11 C11        31.8952   -2.5090   -4.7652 C.ar      12 UNK        -0.0787 
     12 C12        31.1170   -3.5212   -5.3387 C.ar      12 UNK        -0.0862 
     13 C13        29.8525   -3.8248   -4.8228 C.ar      12 UNK        -0.0733 
     14 C14        29.3565   -3.0810   -3.7478 C.ar      12 UNK        -0.0832 
     15 C15        29.0636   -5.0117   -5.3660 C.3       12 UNK         0.0240 
     16 S16        28.1191   -4.6327   -6.8747 S.3       12 UNK        -0.2522 
     17 C17        26.7504   -3.6152   -6.2214 C.3       12 UNK        -0.0967 
     18 CA         26.4979   -2.3329   -7.0491 C.3       5 UNK         0.0660 
     19 N          25.2964   -1.6241   -6.6079 N.am      5 UNK        -0.4015 
     20 C          24.6946   -0.6450   -7.2998 C.2       4 UNK         0.4946 
     21 O          25.0404   -0.2824   -8.4244 O.2       4 UNK        -0.5353 
     22 CA         23.5420    0.0873   -6.5925 C.3       4 UNK         0.0277 
     23 CB         22.2288   -0.6989   -6.7333 C.3       4 UNK        -0.1981 
     24 N          23.8237    0.3339   -5.1753 N.am      4 UNK        -0.4209 
     25 C          24.8044    1.1341   -4.7310 C.2       3 UNK         0.4942 
     26 O          25.5240    1.8038   -5.4701 O.2       3 UNK        -0.5208 
     27 CA         25.0533    1.1656   -3.2136 C.3       3 UNK         0.0250 
     28 CB         24.2391    2.2923   -2.5588 C.3       3 UNK        -0.1990 
     29 N          24.7648   -0.1049   -2.5394 N.am      3 UNK        -0.4232 
     30 C          25.4190   -1.2538   -2.7589 C.2       2 UNK         0.4993 
     31 O          26.3189   -1.3849   -3.5928 O.2       2 UNK        -0.5286 
     32 CA         24.9495   -2.4764   -1.9513 C.3       2 UNK         0.0209 
     33 CB         24.3148   -3.5208   -2.8848 C.3       2 UNK        -0.1931 
     34 N          26.0296   -3.1078   -1.1878 N.am      2 UNK        -0.4546 
     35 C          26.7273   -2.5193   -0.2043 C.2       1 UNK         0.5154 
     36 O          26.5377   -1.3620    0.1711 O.2       1 UNK        -0.5181 
     37 C          27.7097   -1.3836   -7.0664 C.2       5 UNK         0.5014 
     38 O          28.4275   -1.3581   -8.0654 O.2       5 UNK        -0.5248 
     39 N          27.8763   -0.5824   -6.0017 N.am      6 UNK        -0.4434 
     40 CA         28.9268    0.4343   -5.8912 C.3       6 UNK         0.0363 
     41 CB         28.8225    1.1603   -4.5412 C.3       6 UNK        -0.1936 
     42 C          28.8934    1.4551   -7.0397 C.2       6 UNK         0.5081 
     43 O          29.9427    1.7653   -7.6010 O.2       6 UNK        -0.5248 
     44 N          27.6899    1.9309   -7.3869 N.am      7 UNK        -0.4718 
     45 CA         27.4425    2.8217   -8.5195 C.3       7 UNK         0.0273 
     46 CB         25.9964    3.3395   -8.4630 C.3       7 UNK        -0.1935 
     47 C          27.7348    2.1553   -9.8735 C.2       7 UNK         0.5018 
     48 O          28.4155    2.7605  -10.7017 O.2       7 UNK        -0.5186 
     49 N          27.2369    0.9250  -10.0698 N.am      8 UNK        -0.4240 
     50 CA         27.4192    0.1419  -11.2965 C.3       8 UNK         0.0235 
     51 CB         26.5277   -1.1095  -11.2520 C.3       8 UNK        -0.2000 
     52 C          28.8834   -0.2462  -11.5626 C.2       8 UNK         0.4941 
     53 O          29.3428   -0.1280  -12.6992 O.2       8 UNK        -0.5273 
     54 N          29.5905   -0.6892  -10.5153 N.am      9 UNK        -0.4262 
     55 CA         31.0041   -1.0702  -10.5647 C.3       9 UNK         0.0264 
     56 CB         31.2913   -2.0486   -9.4144 C.3       9 UNK        -0.1955 
     57 C          31.9687    0.1308  -10.5177 C.2       9 UNK         0.5031 
     58 O          33.1589   -0.0589  -10.7734 O.2       9 UNK        -0.5390 
     59 N          31.4518    1.3272  -10.1965 N.am      10 UNK        -0.4204 
     60 CA         32.1671    2.5961  -10.0119 C.3       10 UNK         0.0237 
     61 CB         32.7926    3.0830  -11.3367 C.3       10 UNK        -0.1985 
     62 C          33.1714    2.5393   -8.8431 C.2       10 UNK         0.4970 
     63 O          34.3047    3.0071   -8.9720 O.2       10 UNK        -0.4914 
     64 N          32.7245    1.9647   -7.7212 N.am      11 UNK        -0.4285 
     65 CA         33.4861    1.8317   -6.4701 C.3       11 UNK         0.1007 
     66 C          33.4476    3.1049   -5.5773 C.2       11 UNK         0.5703 
     67 N          32.6036    4.0918   -5.8572 N.am      11 UNK        -0.7361 
     68 O          34.2082    3.2039   -4.6174 O.2       11 UNK        -0.4986 
     69 C69        33.0509    0.5776   -5.6668 C.3       12 UNK        -0.0947 
     70 S70        33.2798   -0.9642   -6.6131 S.3       12 UNK        -0.2240 
     71 C71        33.2917   -2.2189   -5.2971 C.3       12 UNK         0.0194 
     72 H72        24.8699   -3.2919    1.9660 H         1 UNK         0.0906 
     73 H73        25.0359   -4.2731    3.4169 H         1 UNK         0.0906 
     74 H74        26.3263   -3.1729    2.9693 H         1 UNK         0.0906 
     75 H75        27.6031   -5.4923    0.3807 H         1 UNK         0.3140 
     76 H76        28.0204   -2.8894    1.4624 H         1 UNK         0.1085 
     77 H77        29.6981   -4.3166    0.2092 H         1 UNK         0.0836 
     78 H78        28.8810   -3.9638   -1.2702 H         1 UNK         0.0836 
     79 H79        29.9954   -0.2919   -1.9740 H         1 UNK         0.0731 
     80 H80        28.5236   -1.2200   -1.9988 H         1 UNK         0.0731 
     81 H81        32.0057   -1.0294   -3.2087 H         1 UNK         0.1312 
     82 H82        31.5062   -4.0912   -6.1713 H         1 UNK         0.1406 
     83 H83        28.3736   -3.2971   -3.3539 H         1 UNK         0.1631 
     84 H84        28.3851   -5.4013   -4.6053 H         1 UNK         0.0717 
     85 H85        29.7547   -5.8256   -5.5904 H         1 UNK         0.0717 
     86 H86        25.8537   -4.2367   -6.2240 H         1 UNK         0.0934 
     87 H87        26.9345   -3.3662   -5.1777 H         1 UNK         0.0934 
     88 H88        26.3204   -2.6428   -8.0814 H         1 UNK         0.0739 
     89 H89        24.9831   -1.8136   -5.6678 H         1 UNK         0.3093 
     90 H90        23.4159    1.0550   -7.0831 H         1 UNK         0.0818 
     91 H91        21.3896   -0.1482   -6.3078 H         1 UNK         0.0819 
     92 H92        21.9951   -0.8797   -7.7836 H         1 UNK         0.0819 
     93 H93        22.2790   -1.6700   -6.2391 H         1 UNK         0.0819 
     94 H94        23.2615   -0.1604   -4.4982 H         1 UNK         0.3041 
     95 H95        26.1128    1.3813   -3.0626 H         1 UNK         0.0784 
     96 H96        24.4559    3.2530   -3.0284 H         1 UNK         0.0793 
     97 H97        23.1654    2.1215   -2.6472 H         1 UNK         0.0793 
     98 H98        24.4785    2.3914   -1.4998 H         1 UNK         0.0793 
     99 H99        24.0412   -0.0827   -1.8349 H         1 UNK         0.3024 
    100 H100       24.1900   -2.1544   -1.2354 H         1 UNK         0.1171 
    101 H101       23.8956   -4.3538   -2.3200 H         1 UNK         0.0786 
    102 H102       23.5007   -3.0863   -3.4665 H         1 UNK         0.0786 
    103 H103       25.0401   -3.9278   -3.5901 H         1 UNK         0.0786 
    104 H104       26.2360   -4.0704   -1.4101 H         1 UNK         0.2977 
    105 H105       27.2631   -0.7033   -5.2008 H         1 UNK         0.3127 
    106 H106       29.8779   -0.0996   -5.9318 H         1 UNK         0.0770 
    107 H107       28.0273    1.9058   -4.5376 H         1 UNK         0.0814 
    108 H108       29.7527    1.6807   -4.3104 H         1 UNK         0.0814 
    109 H109       28.6182    0.4685   -3.7289 H         1 UNK         0.0814 
    110 H110       26.8850    1.6736   -6.8203 H         1 UNK         0.2983 
    111 H111       28.1142    3.6774   -8.4211 H         1 UNK         0.0947 
    112 H112       25.7908    4.0183   -9.2917 H         1 UNK         0.0806 
    113 H113       25.8092    3.8878   -7.5394 H         1 UNK         0.0806 
    114 H114       25.2724    2.5256   -8.5179 H         1 UNK         0.0806 
    115 H115       26.6640    0.5057   -9.3426 H         1 UNK         0.3000 
    116 H116       27.0884    0.7618  -12.1326 H         1 UNK         0.0850 
    117 H117       26.6360   -1.7005  -12.1623 H         1 UNK         0.0810 
    118 H118       25.4746   -0.8423  -11.1621 H         1 UNK         0.0810 
    119 H119       26.7811   -1.7547  -10.4101 H         1 UNK         0.0810 
    120 H120       29.1218   -0.8071   -9.6151 H         1 UNK         0.3040 
    121 H121       31.1908   -1.5943  -11.5044 H         1 UNK         0.0766 
    122 H122       31.0840   -1.5947   -8.4449 H         1 UNK         0.0812 
    123 H123       32.3357   -2.3632   -9.4127 H         1 UNK         0.0812 
    124 H124       30.6798   -2.9473   -9.4948 H         1 UNK         0.0812 
    125 H125       30.4656    1.3565   -9.9713 H         1 UNK         0.3205 
    126 H126       31.4089    3.3253   -9.7223 H         1 UNK         0.0754 
    127 H127       33.2088    4.0850  -11.2261 H         1 UNK         0.0769 
    128 H128       32.0482    3.1277  -12.1318 H         1 UNK         0.0769 
    129 H129       33.6008    2.4312  -11.6695 H         1 UNK         0.0769 
    130 H130       31.7484    1.6767   -7.6848 H         1 UNK         0.2981 
    131 H131       34.5362    1.6929   -6.7343 H         1 UNK         0.0541 
    132 H132       32.5938    4.9139   -5.2746 H         1 UNK         0.3459 
    133 H133       31.9696    4.0144   -6.6360 H         1 UNK         0.3459 
    134 H134       32.0055    0.6565   -5.3681 H         1 UNK         0.0612 
    135 H135       33.6307    0.4981   -4.7455 H         1 UNK         0.0612 
    136 H136       33.9517   -1.9004   -4.4888 H         1 UNK         0.0624 
    137 H137       33.7281   -3.1347   -5.6981 H         1 UNK         0.0624 
@<TRIPOS>BOND
     1    1    2 1    
     2    1   72 1    
     3    1   73 1    
     4    1   74 1    
     5    2    3 2    
     6    2    4 am   BACKBONE|DICT|INTERRES
     7    4    5 1    
     8    4   75 1    
     9    5    6 1    
    10    5   35 1    
    11    5   76 1    
    12    6    7 1    
    13    6   77 1    
    14    6   78 1    
    15    7    8 1    
    16    8    9 1    
    17    8   79 1    
    18    8   80 1    
    19    9   10 ar   
    20    9   14 ar   
    21   10   11 ar   
    22   10   81 1    
    23   11   12 ar   
    24   11   71 1    
    25   12   13 ar   
    26   12   82 1    
    27   13   14 ar   
    28   13   15 1    
    29   14   83 1    
    30   15   16 1    
    31   15   84 1    
    32   15   85 1    
    33   16   17 1    
    34   17   18 1    
    35   17   86 1    
    36   17   87 1    
    37   18   19 1    
    38   18   37 1    
    39   18   88 1    
    40   19   20 am   BACKBONE|DICT|INTERRES
    41   19   89 1    
    42   20   21 2    
    43   20   22 1    
    44   22   23 1    
    45   22   24 1    
    46   22   90 1    
    47   23   91 1    
    48   23   92 1    
    49   23   93 1    
    50   24   25 am   BACKBONE|DICT|INTERRES
    51   24   94 1    
    52   25   26 2    
    53   25   27 1    
    54   27   28 1    
    55   27   29 1    
    56   27   95 1    
    57   28   96 1    
    58   28   97 1    
    59   28   98 1    
    60   29   30 am   BACKBONE|DICT|INTERRES
    61   29   99 1    
    62   30   31 2    
    63   30   32 1    
    64   32   33 1    
    65   32   34 1    
    66   32  100 1    
    67   33  101 1    
    68   33  102 1    
    69   33  103 1    
    70   34   35 am   BACKBONE|DICT|INTERRES
    71   34  104 1    
    72   35   36 2    
    73   37   38 2    
    74   37   39 am   BACKBONE|DICT|INTERRES
    75   39   40 1    
    76   39  105 1    
    77   40   41 1    
    78   40   42 1    
    79   40  106 1    
    80   41  107 1    
    81   41  108 1    
    82   41  109 1    
    83   42   43 2    
    84   42   44 am   BACKBONE|DICT|INTERRES
    85   44   45 1    
    86   44  110 1    
    87   45   46 1    
    88   45   47 1    
    89   45  111 1    
    90   46  112 1    
    91   46  113 1    
    92   46  114 1    
    93   47   48 2    
    94   47   49 am   BACKBONE|DICT|INTERRES
    95   49   50 1    
    96   49  115 1    
    97   50   51 1    
    98   50   52 1    
    99   50  116 1    
   100   51  117 1    
   101   51  118 1    
   102   51  119 1    
   103   52   53 2    
   104   52   54 am   BACKBONE|DICT|INTERRES
   105   54   55 1    
   106   54  120 1    
   107   55   56 1    
   108   55   57 1    
   109   55  121 1    
   110   56  122 1    
   111   56  123 1    
   112   56  124 1    
   113   57   58 2    
   114   57   59 am   BACKBONE|DICT|INTERRES
   115   59   60 1    
   116   59  125 1    
   117   60   61 1    
   118   60   62 1    
   119   60  126 1    
   120   61  127 1    
   121   61  128 1    
   122   61  129 1    
   123   62   63 2    
   124   62   64 am   BACKBONE|DICT|INTERRES
   125   64   65 1    
   126   64  130 1    
   127   65   66 1    
   128   65   69 1    
   129   65  131 1    
   130   66   67 am   BACKBONE|DICT|INTERRES
   131   66   68 2    
   132   67  132 1    
   133   67  133 1    
   134   69   70 1    
   135   69  134 1    
   136   69  135 1    
   137   70   71 1    
   138   71  136 1    
   139   71  137 1    
@<TRIPOS>SUBSTRUCTURE
     1 UNK         1 GROUP             0       ****    0 ROOT    
