@<TRIPOS>MOLECULE
3R137
137   139    1
SMALL
USER_CHARGES


@<TRIPOS>ATOM
      1 CA         31.3555   -0.4823    2.1787 C.3       0 UNK        -0.2020 
      2 C          31.0544   -0.4650    0.6876 C.2       0 UNK         0.4855 
      3 O          31.7948    0.1544   -0.0768 O.2       0 UNK        -0.5197 
      4 N          29.9759   -1.1371    0.2742 N.am      1 UNK        -0.4892 
      5 CA         29.5131   -1.2284   -1.1110 C.3       1 UNK         0.0835 
      6 C6         30.0771   -2.4743   -1.8528 C.3       12 UNK        -0.0855 
      7 S7         29.6626   -4.0858   -1.0874 S.3       12 UNK        -0.2931 
      8 C8         30.8746   -5.2010   -1.8716 C.3       12 UNK         0.0378 
      9 C9         30.8237   -5.1226   -3.3912 C.ar      12 UNK        -0.0802 
     10 C10        31.8879   -4.5558   -4.0995 C.ar      12 UNK        -0.0944 
     11 C11        31.8184   -4.4126   -5.4884 C.ar      12 UNK        -0.0787 
     12 C12        30.6909   -4.8715   -6.1715 C.ar      12 UNK        -0.0862 
     13 C13        29.6108   -5.4151   -5.4723 C.ar      12 UNK        -0.0733 
     14 C14        29.6916   -5.5636   -4.0844 C.ar      12 UNK        -0.0832 
     15 C15        28.3273   -5.7558   -6.2145 C.3       12 UNK         0.0240 
     16 S16        26.9763   -4.6014   -5.7965 S.3       12 UNK        -0.2522 
     17 C17        27.7250   -2.9513   -6.0607 C.3       12 UNK        -0.0967 
     18 CA         26.9187   -2.0703   -7.0426 C.3       5 UNK         0.0660 
     19 N          25.5237   -1.9046   -6.6353 N.am      5 UNK        -0.4015 
     20 C          24.5252   -1.5538   -7.4556 C.2       4 UNK         0.4946 
     21 O          24.6620   -1.3696   -8.6651 O.2       4 UNK        -0.5353 
     22 CA         23.1391   -1.3610   -6.8156 C.3       4 UNK         0.0277 
     23 CB         22.3638   -2.6882   -6.8027 C.3       4 UNK        -0.1981 
     24 N          23.2047   -0.8202   -5.4544 N.am      4 UNK        -0.4209 
     25 C          23.6212    0.4186   -5.1558 C.2       3 UNK         0.4942 
     26 O          23.9599    1.2484   -5.9985 O.2       3 UNK        -0.5208 
     27 CA         23.7165    0.7793   -3.6630 C.3       3 UNK         0.0250 
     28 CB         22.3532    1.2556   -3.1364 C.3       3 UNK        -0.1990 
     29 N          24.2263   -0.2996   -2.8057 N.am      3 UNK        -0.4232 
     30 C          25.4068   -0.9147   -2.9624 C.2       2 UNK         0.4993 
     31 O          26.1600   -0.7214   -3.9188 O.2       2 UNK        -0.5286 
     32 CA         25.7953   -1.9556   -1.9025 C.3       2 UNK         0.0209 
     33 CB         25.2896   -3.3484   -2.3101 C.3       2 UNK        -0.1931 
     34 N          27.2486   -2.0087   -1.7293 N.am      2 UNK        -0.4546 
     35 C          27.9791   -1.0654   -1.1205 C.2       1 UNK         0.5154 
     36 O          27.4803   -0.0850   -0.5620 O.2       1 UNK        -0.5181 
     37 C          27.5850   -0.6938   -7.2186 C.2       5 UNK         0.5014 
     38 O          28.2295   -0.4607   -8.2404 O.2       5 UNK        -0.5248 
     39 N          27.3709    0.2057   -6.2458 N.am      6 UNK        -0.4434 
     40 CA         27.8573    1.5894   -6.2291 C.3       6 UNK         0.0363 
     41 CB         27.4890    2.2359   -4.8850 C.3       6 UNK        -0.1936 
     42 C          27.3432    2.4495   -7.4006 C.2       6 UNK         0.5081 
     43 O          28.0118    3.4051   -7.7944 O.2       6 UNK        -0.5248 
     44 N          26.1689    2.1012   -7.9422 N.am      7 UNK        -0.4718 
     45 CA         25.6057    2.6980   -9.1532 C.3       7 UNK         0.0273 
     46 CB         24.0968    2.4074   -9.1971 C.3       7 UNK        -0.1935 
     47 C          26.2821    2.2034  -10.4462 C.2       7 UNK         0.5018 
     48 O          26.2149    2.9076  -11.4547 O.2       7 UNK        -0.5186 
     49 N          26.8917    1.0096  -10.4151 N.am      8 UNK        -0.4240 
     50 CA         27.5167    0.3680  -11.5732 C.3       8 UNK         0.0235 
     51 CB         27.2989   -1.1525  -11.4932 C.3       8 UNK        -0.2000 
     52 C          29.0139    0.6923  -11.6847 C.2       8 UNK         0.4941 
     53 O          29.5037    0.8726  -12.8007 O.2       8 UNK        -0.5273 
     54 N          29.7164    0.7570  -10.5482 N.am      9 UNK        -0.4262 
     55 CA         31.1489    1.0366  -10.4530 C.3       9 UNK         0.0264 
     56 CB         31.9401   -0.2726  -10.6331 C.3       9 UNK        -0.1955 
     57 C          31.4436    1.6761   -9.0925 C.2       9 UNK         0.5031 
     58 O          30.5992    1.6184   -8.1994 O.2       9 UNK        -0.5390 
     59 N          32.6459    2.2440   -8.9269 N.am      10 UNK        -0.4204 
     60 CA         33.1166    2.9099   -7.7012 C.3       10 UNK         0.0237 
     61 CB         34.3077    3.8202   -8.0575 C.3       10 UNK        -0.1985 
     62 C          33.4391    1.9372   -6.5409 C.2       10 UNK         0.4970 
     63 O          34.4974    2.0430   -5.9179 O.2       10 UNK        -0.4914 
     64 N          32.5268    0.9984   -6.2854 N.am      11 UNK        -0.4285 
     65 CA         32.5870   -0.0136   -5.2294 C.3       11 UNK         0.1007 
     66 C          32.2063    0.5580   -3.8394 C.2       11 UNK         0.5703 
     67 N          32.7657   -0.0069   -2.7784 N.am      11 UNK        -0.7361 
     68 O          31.3709    1.4514   -3.7120 O.2       11 UNK        -0.4986 
     69 C69        31.6795   -1.2155   -5.5829 C.3       12 UNK        -0.0947 
     70 S70        32.3042   -2.1506   -7.0220 S.3       12 UNK        -0.2240 
     71 C71        32.9200   -3.6843   -6.2455 C.3       12 UNK         0.0194 
     72 H72        32.3443   -0.9047    2.3559 H         1 UNK         0.0906 
     73 H73        31.3423    0.5325    2.5755 H         1 UNK         0.0906 
     74 H74        30.6294   -1.0742    2.7358 H         1 UNK         0.0906 
     75 H75        29.3823   -1.5995    0.9494 H         1 UNK         0.3140 
     76 H76        29.8718   -0.3508   -1.6546 H         1 UNK         0.1085 
     77 H77        29.7483   -2.4785   -2.8940 H         1 UNK         0.0836 
     78 H78        31.1644   -2.3924   -1.8958 H         1 UNK         0.0836 
     79 H79        31.8718   -4.9562   -1.5022 H         1 UNK         0.0731 
     80 H80        30.6730   -6.2254   -1.5556 H         1 UNK         0.0731 
     81 H81        32.7522   -4.1860   -3.5650 H         1 UNK         0.1312 
     82 H82        30.6272   -4.7343   -7.2425 H         1 UNK         0.1406 
     83 H83        28.8504   -5.9681   -3.5376 H         1 UNK         0.1631 
     84 H84        28.0199   -6.7717   -5.9629 H         1 UNK         0.0717 
     85 H85        28.4846   -5.7395   -7.2941 H         1 UNK         0.0717 
     86 H86        27.8196   -2.4704   -5.0854 H         1 UNK         0.0934 
     87 H87        28.7416   -3.0572   -6.4381 H         1 UNK         0.0934 
     88 H88        26.9302   -2.5655   -8.0165 H         1 UNK         0.0739 
     89 H89        25.3401   -1.9844   -5.6452 H         1 UNK         0.3093 
     90 H90        22.5886   -0.6487   -7.4344 H         1 UNK         0.0818 
     91 H91        21.3498   -2.5527   -6.4259 H         1 UNK         0.0819 
     92 H92        22.2805   -3.0995   -7.8098 H         1 UNK         0.0819 
     93 H93        22.8560   -3.4399   -6.1842 H         1 UNK         0.0819 
     94 H94        22.9378   -1.4342   -4.6988 H         1 UNK         0.3041 
     95 H95        24.4175    1.6116   -3.5781 H         1 UNK         0.0784 
     96 H96        21.9620    2.0704   -3.7478 H         1 UNK         0.0793 
     97 H97        21.6119    0.4556   -3.1469 H         1 UNK         0.0793 
     98 H98        22.4301    1.6297   -2.1153 H         1 UNK         0.0793 
     99 H99        23.6596   -0.5370   -2.0038 H         1 UNK         0.3024 
    100 H100       25.3428   -1.6767   -0.9480 H         1 UNK         0.1171 
    101 H101       24.2043   -3.3576   -2.4187 H         1 UNK         0.0786 
    102 H102       25.5449   -4.0976   -1.5603 H         1 UNK         0.0786 
    103 H103       25.7153   -3.6697   -3.2607 H         1 UNK         0.0786 
    104 H104       27.7306   -2.7967   -2.1389 H         1 UNK         0.2977 
    105 H105       26.8474   -0.0931   -5.4219 H         1 UNK         0.3127 
    106 H106       28.9449    1.5510   -6.2930 H         1 UNK         0.0770 
    107 H107       26.4087    2.3005   -4.7554 H         1 UNK         0.0814 
    108 H108       27.8886    3.2485   -4.8177 H         1 UNK         0.0814 
    109 H109       27.8964    1.6699   -4.0466 H         1 UNK         0.0814 
    110 H110       25.6275    1.3719   -7.4938 H         1 UNK         0.2983 
    111 H111       25.7436    3.7804   -9.1044 H         1 UNK         0.0947 
    112 H112       23.6370    2.8534  -10.0801 H         1 UNK         0.0806 
    113 H113       23.5887    2.8190   -8.3248 H         1 UNK         0.0806 
    114 H114       23.8937    1.3361   -9.2276 H         1 UNK         0.0806 
    115 H115       26.9688    0.5187   -9.5311 H         1 UNK         0.3000 
    116 H116       27.0329    0.7215  -12.4865 H         1 UNK         0.0850 
    117 H117       27.7046   -1.6504  -12.3748 H         1 UNK         0.0810 
    118 H118       26.2380   -1.3982  -11.4396 H         1 UNK         0.0810 
    119 H119       27.7858   -1.5890  -10.6206 H         1 UNK         0.0810 
    120 H120       29.2536    0.6084   -9.6530 H         1 UNK         0.3040 
    121 H121       31.4334    1.7508  -11.2286 H         1 UNK         0.0766 
    122 H122       33.0147   -0.1043  -10.5554 H         1 UNK         0.0812 
    123 H123       31.7544   -0.7173  -11.6108 H         1 UNK         0.0812 
    124 H124       31.6688   -1.0091   -9.8754 H         1 UNK         0.0812 
    125 H125       33.3013    2.2126   -9.6948 H         1 UNK         0.3205 
    126 H126       32.3106    3.5542   -7.3429 H         1 UNK         0.0754 
    127 H127       34.6395    4.3916   -7.1893 H         1 UNK         0.0769 
    128 H128       34.0399    4.5414   -8.8300 H         1 UNK         0.0769 
    129 H129       35.1620    3.2443   -8.4157 H         1 UNK         0.0769 
    130 H130       31.6735    1.0219   -6.8388 H         1 UNK         0.2981 
    131 H131       33.6174   -0.3701   -5.1672 H         1 UNK         0.0541 
    132 H132       33.4499   -0.7388   -2.8792 H         1 UNK         0.3459 
    133 H133       32.4832    0.2843   -1.8465 H         1 UNK         0.3459 
    134 H134       30.6657   -0.8782   -5.8088 H         1 UNK         0.0612 
    135 H135       31.5832   -1.8831   -4.7275 H         1 UNK         0.0612 
    136 H136       33.7526   -3.4372   -5.5852 H         1 UNK         0.0624 
    137 H137       33.3196   -4.3399   -7.0201 H         1 UNK         0.0624 
@<TRIPOS>BOND
     1    1    2 1    
     2    1   72 1    
     3    1   73 1    
     4    1   74 1    
     5    2    3 2    
     6    2    4 am   BACKBONE|DICT|INTERRES
     7    4    5 1    
     8    4   75 1    
     9    5    6 1    
    10    5   35 1    
    11    5   76 1    
    12    6    7 1    
    13    6   77 1    
    14    6   78 1    
    15    7    8 1    
    16    8    9 1    
    17    8   79 1    
    18    8   80 1    
    19    9   10 ar   
    20    9   14 ar   
    21   10   11 ar   
    22   10   81 1    
    23   11   12 ar   
    24   11   71 1    
    25   12   13 ar   
    26   12   82 1    
    27   13   14 ar   
    28   13   15 1    
    29   14   83 1    
    30   15   16 1    
    31   15   84 1    
    32   15   85 1    
    33   16   17 1    
    34   17   18 1    
    35   17   86 1    
    36   17   87 1    
    37   18   19 1    
    38   18   37 1    
    39   18   88 1    
    40   19   20 am   BACKBONE|DICT|INTERRES
    41   19   89 1    
    42   20   21 2    
    43   20   22 1    
    44   22   23 1    
    45   22   24 1    
    46   22   90 1    
    47   23   91 1    
    48   23   92 1    
    49   23   93 1    
    50   24   25 am   BACKBONE|DICT|INTERRES
    51   24   94 1    
    52   25   26 2    
    53   25   27 1    
    54   27   28 1    
    55   27   29 1    
    56   27   95 1    
    57   28   96 1    
    58   28   97 1    
    59   28   98 1    
    60   29   30 am   BACKBONE|DICT|INTERRES
    61   29   99 1    
    62   30   31 2    
    63   30   32 1    
    64   32   33 1    
    65   32   34 1    
    66   32  100 1    
    67   33  101 1    
    68   33  102 1    
    69   33  103 1    
    70   34   35 am   BACKBONE|DICT|INTERRES
    71   34  104 1    
    72   35   36 2    
    73   37   38 2    
    74   37   39 am   BACKBONE|DICT|INTERRES
    75   39   40 1    
    76   39  105 1    
    77   40   41 1    
    78   40   42 1    
    79   40  106 1    
    80   41  107 1    
    81   41  108 1    
    82   41  109 1    
    83   42   43 2    
    84   42   44 am   BACKBONE|DICT|INTERRES
    85   44   45 1    
    86   44  110 1    
    87   45   46 1    
    88   45   47 1    
    89   45  111 1    
    90   46  112 1    
    91   46  113 1    
    92   46  114 1    
    93   47   48 2    
    94   47   49 am   BACKBONE|DICT|INTERRES
    95   49   50 1    
    96   49  115 1    
    97   50   51 1    
    98   50   52 1    
    99   50  116 1    
   100   51  117 1    
   101   51  118 1    
   102   51  119 1    
   103   52   53 2    
   104   52   54 am   BACKBONE|DICT|INTERRES
   105   54   55 1    
   106   54  120 1    
   107   55   56 1    
   108   55   57 1    
   109   55  121 1    
   110   56  122 1    
   111   56  123 1    
   112   56  124 1    
   113   57   58 2    
   114   57   59 am   BACKBONE|DICT|INTERRES
   115   59   60 1    
   116   59  125 1    
   117   60   61 1    
   118   60   62 1    
   119   60  126 1    
   120   61  127 1    
   121   61  128 1    
   122   61  129 1    
   123   62   63 2    
   124   62   64 am   BACKBONE|DICT|INTERRES
   125   64   65 1    
   126   64  130 1    
   127   65   66 1    
   128   65   69 1    
   129   65  131 1    
   130   66   67 am   BACKBONE|DICT|INTERRES
   131   66   68 2    
   132   67  132 1    
   133   67  133 1    
   134   69   70 1    
   135   69  134 1    
   136   69  135 1    
   137   70   71 1    
   138   71  136 1    
   139   71  137 1    
@<TRIPOS>SUBSTRUCTURE
     1 UNK         1 GROUP             0       ****    0 ROOT    
