@<TRIPOS>MOLECULE
3R137
137   139    1
SMALL
USER_CHARGES


@<TRIPOS>ATOM
      1 CA         24.6011   -7.1125   -0.8784 C.3       0 UNK        -0.2020 
      2 C          25.4329   -5.8400   -0.9152 C.2       0 UNK         0.4855 
      3 O          25.2418   -5.0110   -1.8028 O.2       0 UNK        -0.5197 
      4 N          26.3390   -5.6633    0.0576 N.am      1 UNK        -0.4892 
      5 CA         27.2797   -4.5346    0.1779 C.3       1 UNK         0.0835 
      6 C6         28.3341   -4.5247   -0.9669 C.3       12 UNK        -0.0855 
      7 S7         30.0081   -4.0915   -0.3810 S.3       12 UNK        -0.2931 
      8 C8         31.0240   -4.5563   -1.8210 C.3       12 UNK         0.0378 
      9 C9         30.7478   -3.6514   -3.0125 C.ar      12 UNK        -0.0802 
     10 C10        31.3798   -2.4070   -3.1118 C.ar      12 UNK        -0.0944 
     11 C11        31.0932   -1.5485   -4.1779 C.ar      12 UNK        -0.0787 
     12 C12        30.1726   -1.9508   -5.1493 C.ar      12 UNK        -0.0862 
     13 C13        29.5454   -3.1951   -5.0685 C.ar      12 UNK        -0.0733 
     14 C14        29.8414   -4.0468   -4.0018 C.ar      12 UNK        -0.0832 
     15 C15        28.5285   -3.5972   -6.1220 C.3       12 UNK         0.0240 
     16 S16        26.8600   -3.0686   -5.6270 S.3       12 UNK        -0.2522 
     17 C17        26.1768   -2.4606   -7.2086 C.3       12 UNK        -0.0967 
     18 CA         26.0841   -0.9155   -7.2999 C.3       5 UNK         0.0660 
     19 N          25.3065   -0.3524   -6.1916 N.am      5 UNK        -0.4015 
     20 C          24.6123    0.7915   -6.2207 C.2       4 UNK         0.4946 
     21 O          24.5736    1.5250   -7.2100 O.2       4 UNK        -0.5353 
     22 CA         23.8483    1.1898   -4.9374 C.3       4 UNK         0.0277 
     23 CB         22.6822    2.1527   -5.2314 C.3       4 UNK        -0.1981 
     24 N          23.3345    0.0434   -4.1756 N.am      4 UNK        -0.4209 
     25 C          24.0575   -0.7388   -3.3639 C.2       3 UNK         0.4942 
     26 O          25.2727   -0.6096   -3.2042 O.2       3 UNK        -0.5208 
     27 CA         23.3064   -1.8984   -2.6890 C.3       3 UNK         0.0250 
     28 CB         23.2993   -3.1299   -3.6091 C.3       3 UNK        -0.1990 
     29 N          23.8900   -2.2624   -1.3941 N.am      3 UNK        -0.4232 
     30 C          23.8226   -1.4926   -0.2958 C.2       2 UNK         0.4993 
     31 O          23.2378   -0.4080   -0.2679 O.2       2 UNK        -0.5286 
     32 CA         24.4686   -2.0081    1.0061 C.3       2 UNK         0.0209 
     33 CB         23.3864   -2.3457    2.0466 C.3       2 UNK        -0.1931 
     34 N          25.3190   -3.1851    0.8204 N.am      2 UNK        -0.4546 
     35 C          26.5835   -3.1617    0.3761 C.2       1 UNK         0.5154 
     36 O          27.1887   -2.1156    0.1377 O.2       1 UNK        -0.5181 
     37 C          27.4641   -0.2436   -7.4835 C.2       5 UNK         0.5014 
     38 O          28.1748   -0.5932   -8.4263 O.2       5 UNK        -0.5248 
     39 N          27.8180    0.7203   -6.6184 N.am      6 UNK        -0.4434 
     40 CA         29.0519    1.5143   -6.6550 C.3       6 UNK         0.0363 
     41 CB         29.0298    2.5326   -5.5045 C.3       6 UNK        -0.1936 
     42 C          29.3089    2.2282   -7.9911 C.2       6 UNK         0.5081 
     43 O          30.4612    2.3083   -8.4162 O.2       6 UNK        -0.5248 
     44 N          28.2371    2.7035   -8.6392 N.am      7 UNK        -0.4718 
     45 CA         28.2863    3.3435   -9.9556 C.3       7 UNK         0.0273 
     46 CB         26.9718    4.1020  -10.1987 C.3       7 UNK        -0.1935 
     47 C          28.5545    2.3511  -11.1008 C.2       7 UNK         0.5018 
     48 O          29.1849    2.7315  -12.0872 O.2       7 UNK        -0.5186 
     49 N          28.0809    1.1057  -10.9528 N.am      8 UNK        -0.4240 
     50 CA         28.2848    0.0220  -11.9167 C.3       8 UNK         0.0235 
     51 CB         27.1741   -1.0303  -11.7586 C.3       8 UNK        -0.2000 
     52 C          29.6720   -0.6160  -11.7562 C.2       8 UNK         0.4941 
     53 O          30.3414   -0.8749  -12.7566 O.2       8 UNK        -0.5273 
     54 N          30.0850   -0.8344  -10.5002 N.am      9 UNK        -0.4262 
     55 CA         31.4037   -1.3520  -10.1273 C.3       9 UNK         0.0264 
     56 CB         31.3539   -1.8173   -8.6651 C.3       9 UNK        -0.1955 
     57 C          32.5443   -0.3365  -10.3260 C.2       9 UNK         0.5031 
     58 O          33.6998   -0.7534  -10.4168 O.2       9 UNK        -0.5390 
     59 N          32.2010    0.9595  -10.3808 N.am      10 UNK        -0.4204 
     60 CA         33.0873    2.1230  -10.4800 C.3       10 UNK         0.0237 
     61 CB         33.8738    2.1221  -11.8088 C.3       10 UNK        -0.1985 
     62 C          33.9798    2.2653   -9.2337 C.2       10 UNK         0.4970 
     63 O          35.1982    2.4094   -9.3540 O.2       10 UNK        -0.4914 
     64 N          33.3452    2.2180   -8.0550 N.am      11 UNK        -0.4285 
     65 CA         34.0023    2.3744   -6.7460 C.3       11 UNK         0.1007 
     66 C          34.4752    3.8250   -6.4336 C.2       11 UNK         0.5703 
     67 N          34.0232    4.8451   -7.1544 N.am      11 UNK        -0.7361 
     68 O          35.2740    4.0262   -5.5219 O.2       11 UNK        -0.4986 
     69 C69        33.1283    1.8278   -5.5876 C.3       12 UNK        -0.0947 
     70 S70        32.7493    0.0531   -5.7416 S.3       12 UNK        -0.2240 
     71 C71        31.7285   -0.1668   -4.2509 C.3       12 UNK         0.0194 
     72 H72        24.8613   -7.7474   -0.0318 H         1 UNK         0.0906 
     73 H73        23.5421   -6.8662   -0.8061 H         1 UNK         0.0906 
     74 H74        24.7554   -7.6856   -1.7923 H         1 UNK         0.0906 
     75 H75        26.4317   -6.3727    0.7730 H         1 UNK         0.3140 
     76 H76        27.8023   -4.7182    1.1183 H         1 UNK         0.1085 
     77 H77        28.4045   -5.5149   -1.4200 H         1 UNK         0.0836 
     78 H78        28.0379   -3.8544   -1.7768 H         1 UNK         0.0836 
     79 H79        32.0779   -4.4897   -1.5467 H         1 UNK         0.0731 
     80 H80        30.8424   -5.6012   -2.0778 H         1 UNK         0.0731 
     81 H81        32.0739   -2.0983   -2.3419 H         1 UNK         0.1312 
     82 H82        29.9314   -1.2923   -5.9684 H         1 UNK         0.1406 
     83 H83        29.3433   -5.0041   -3.9272 H         1 UNK         0.1631 
     84 H84        28.5363   -4.6777   -6.2723 H         1 UNK         0.0717 
     85 H85        28.8017   -3.1514   -7.0788 H         1 UNK         0.0717 
     86 H86        26.7363   -2.8705   -8.0518 H         1 UNK         0.0934 
     87 H87        25.1748   -2.8811   -7.3071 H         1 UNK         0.0934 
     88 H88        25.5396   -0.6946   -8.2206 H         1 UNK         0.0739 
     89 H89        25.3520   -0.8608   -5.3153 H         1 UNK         0.3093 
     90 H90        24.5626    1.7240   -4.3070 H         1 UNK         0.0818 
     91 H91        22.1748    2.4547   -4.3149 H         1 UNK         0.0819 
     92 H92        23.0359    3.0648   -5.7143 H         1 UNK         0.0819 
     93 H93        21.9425    1.6996   -5.8926 H         1 UNK         0.0819 
     94 H94        22.3519   -0.1614   -4.2919 H         1 UNK         0.3041 
     95 H95        22.2731   -1.5900   -2.5155 H         1 UNK         0.0784 
     96 H96        22.8140   -2.9099   -4.5608 H         1 UNK         0.0793 
     97 H97        24.3118   -3.4696   -3.8320 H         1 UNK         0.0793 
     98 H98        22.7614   -3.9627   -3.1555 H         1 UNK         0.0793 
     99 H99        24.4210   -3.1265   -1.3650 H         1 UNK         0.3024 
    100 H100       25.0795   -1.1930    1.4014 H         1 UNK         0.1171 
    101 H101       22.7535   -1.4802    2.2489 H         1 UNK         0.0786 
    102 H102       23.8286   -2.6480    2.9961 H         1 UNK         0.0786 
    103 H103       22.7356   -3.1520    1.7058 H         1 UNK         0.0786 
    104 H104       24.8958   -4.0868    0.9872 H         1 UNK         0.2977 
    105 H105       27.1742    0.9305   -5.8706 H         1 UNK         0.3127 
    106 H106       29.8911    0.8385   -6.4988 H         1 UNK         0.0770 
    107 H107       29.9335    3.1431   -5.5011 H         1 UNK         0.0814 
    108 H108       28.9701    2.0381   -4.5349 H         1 UNK         0.0814 
    109 H109       28.1818    3.2139   -5.5852 H         1 UNK         0.0814 
    110 H110       27.3275    2.5960   -8.2120 H         1 UNK         0.2983 
    111 H111       29.1038    4.0684   -9.9530 H         1 UNK         0.0947 
    112 H112       26.9850    4.6055  -11.1665 H         1 UNK         0.0806 
    113 H113       26.8095    4.8676   -9.4398 H         1 UNK         0.0806 
    114 H114       26.1102    3.4330  -10.1907 H         1 UNK         0.0806 
    115 H115       27.6338    0.8600  -10.0803 H         1 UNK         0.3000 
    116 H116       28.2189    0.4322  -12.9271 H         1 UNK         0.0850 
    117 H117       27.2921   -1.8312  -12.4898 H         1 UNK         0.0810 
    118 H118       26.1884   -0.5921  -11.9158 H         1 UNK         0.0810 
    119 H119       27.1824   -1.4903  -10.7699 H         1 UNK         0.0810 
    120 H120       29.4341   -0.6521   -9.7371 H         1 UNK         0.3040 
    121 H121       31.6229   -2.2173  -10.7564 H         1 UNK         0.0766 
    122 H122       32.3233   -2.1926   -8.3341 H         1 UNK         0.0812 
    123 H123       30.6313   -2.6212   -8.5304 H         1 UNK         0.0812 
    124 H124       31.0761   -0.9987   -8.0018 H         1 UNK         0.0812 
    125 H125       31.2285    1.1820  -10.2112 H         1 UNK         0.3205 
    126 H126       32.4355    2.9982  -10.4890 H         1 UNK         0.0754 
    127 H127       34.4351    3.0494  -11.9286 H         1 UNK         0.0769 
    128 H128       33.2036    2.0358  -12.6642 H         1 UNK         0.0769 
    129 H129       34.5902    1.3017  -11.8598 H         1 UNK         0.0769 
    130 H130       32.3327    2.1303   -8.0509 H         1 UNK         0.2981 
    131 H131       34.9118    1.7709   -6.7727 H         1 UNK         0.0541 
    132 H132       33.3632    4.6922   -7.8992 H         1 UNK         0.3459 
    133 H133       34.3417    5.7777   -6.9435 H         1 UNK         0.3459 
    134 H134       32.1909    2.3822   -5.5305 H         1 UNK         0.0612 
    135 H135       33.6303    1.9705   -4.6285 H         1 UNK         0.0612 
    136 H136       30.9382    0.5836   -4.2369 H         1 UNK         0.0624 
    137 H137       32.3473    0.0213   -3.3722 H         1 UNK         0.0624 
@<TRIPOS>BOND
     1    1    2 1    
     2    1   72 1    
     3    1   73 1    
     4    1   74 1    
     5    2    3 2    
     6    2    4 am   BACKBONE|DICT|INTERRES
     7    4    5 1    
     8    4   75 1    
     9    5    6 1    
    10    5   35 1    
    11    5   76 1    
    12    6    7 1    
    13    6   77 1    
    14    6   78 1    
    15    7    8 1    
    16    8    9 1    
    17    8   79 1    
    18    8   80 1    
    19    9   10 ar   
    20    9   14 ar   
    21   10   11 ar   
    22   10   81 1    
    23   11   12 ar   
    24   11   71 1    
    25   12   13 ar   
    26   12   82 1    
    27   13   14 ar   
    28   13   15 1    
    29   14   83 1    
    30   15   16 1    
    31   15   84 1    
    32   15   85 1    
    33   16   17 1    
    34   17   18 1    
    35   17   86 1    
    36   17   87 1    
    37   18   19 1    
    38   18   37 1    
    39   18   88 1    
    40   19   20 am   BACKBONE|DICT|INTERRES
    41   19   89 1    
    42   20   21 2    
    43   20   22 1    
    44   22   23 1    
    45   22   24 1    
    46   22   90 1    
    47   23   91 1    
    48   23   92 1    
    49   23   93 1    
    50   24   25 am   BACKBONE|DICT|INTERRES
    51   24   94 1    
    52   25   26 2    
    53   25   27 1    
    54   27   28 1    
    55   27   29 1    
    56   27   95 1    
    57   28   96 1    
    58   28   97 1    
    59   28   98 1    
    60   29   30 am   BACKBONE|DICT|INTERRES
    61   29   99 1    
    62   30   31 2    
    63   30   32 1    
    64   32   33 1    
    65   32   34 1    
    66   32  100 1    
    67   33  101 1    
    68   33  102 1    
    69   33  103 1    
    70   34   35 am   BACKBONE|DICT|INTERRES
    71   34  104 1    
    72   35   36 2    
    73   37   38 2    
    74   37   39 am   BACKBONE|DICT|INTERRES
    75   39   40 1    
    76   39  105 1    
    77   40   41 1    
    78   40   42 1    
    79   40  106 1    
    80   41  107 1    
    81   41  108 1    
    82   41  109 1    
    83   42   43 2    
    84   42   44 am   BACKBONE|DICT|INTERRES
    85   44   45 1    
    86   44  110 1    
    87   45   46 1    
    88   45   47 1    
    89   45  111 1    
    90   46  112 1    
    91   46  113 1    
    92   46  114 1    
    93   47   48 2    
    94   47   49 am   BACKBONE|DICT|INTERRES
    95   49   50 1    
    96   49  115 1    
    97   50   51 1    
    98   50   52 1    
    99   50  116 1    
   100   51  117 1    
   101   51  118 1    
   102   51  119 1    
   103   52   53 2    
   104   52   54 am   BACKBONE|DICT|INTERRES
   105   54   55 1    
   106   54  120 1    
   107   55   56 1    
   108   55   57 1    
   109   55  121 1    
   110   56  122 1    
   111   56  123 1    
   112   56  124 1    
   113   57   58 2    
   114   57   59 am   BACKBONE|DICT|INTERRES
   115   59   60 1    
   116   59  125 1    
   117   60   61 1    
   118   60   62 1    
   119   60  126 1    
   120   61  127 1    
   121   61  128 1    
   122   61  129 1    
   123   62   63 2    
   124   62   64 am   BACKBONE|DICT|INTERRES
   125   64   65 1    
   126   64  130 1    
   127   65   66 1    
   128   65   69 1    
   129   65  131 1    
   130   66   67 am   BACKBONE|DICT|INTERRES
   131   66   68 2    
   132   67  132 1    
   133   67  133 1    
   134   69   70 1    
   135   69  134 1    
   136   69  135 1    
   137   70   71 1    
   138   71  136 1    
   139   71  137 1    
@<TRIPOS>SUBSTRUCTURE
     1 UNK         1 GROUP             0       ****    0 ROOT    
