@<TRIPOS>MOLECULE
3R137
137   139    1
SMALL
USER_CHARGES


@<TRIPOS>ATOM
      1 CA         25.0901   -4.6016   -0.5604 C.3       0 UNK        -0.2020 
      2 C          26.1719   -4.7107   -1.6319 C.2       0 UNK         0.4855 
      3 O          25.9715   -5.4238   -2.6116 O.2       0 UNK        -0.5197 
      4 N          27.3253   -4.0440   -1.4912 N.am      1 UNK        -0.4892 
      5 CA         27.7177   -3.1859   -0.3681 C.3       1 UNK         0.0835 
      6 C6         29.2485   -3.1825   -0.1196 C.3       12 UNK        -0.0855 
      7 S7         29.9343   -4.8776   -0.0211 S.3       12 UNK        -0.2931 
      8 C8         31.3345   -4.8574   -1.1956 C.3       12 UNK         0.0378 
      9 C9         31.0196   -4.1820   -2.5265 C.ar      12 UNK        -0.0802 
     10 C10        31.7007   -3.0139   -2.8845 C.ar      12 UNK        -0.0944 
     11 C11        31.4342   -2.3682   -4.0948 C.ar      12 UNK        -0.0787 
     12 C12        30.4613   -2.9030   -4.9472 C.ar      12 UNK        -0.0862 
     13 C13        29.7759   -4.0734   -4.6073 C.ar      12 UNK        -0.0733 
     14 C14        30.0627   -4.7145   -3.3973 C.ar      12 UNK        -0.0832 
     15 C15        28.7565   -4.6545   -5.5748 C.3       12 UNK         0.0240 
     16 S16        27.1400   -3.8191   -5.4438 S.3       12 UNK        -0.2522 
     17 C17        26.6501   -3.6894   -7.2042 C.3       12 UNK        -0.0967 
     18 CA         26.4945   -2.2403   -7.7348 C.3       5 UNK         0.0660 
     19 N          25.2845   -1.5881   -7.2282 N.am      5 UNK        -0.4015 
     20 C          24.8243   -0.4033   -7.6566 C.2       4 UNK         0.4946 
     21 O          25.3355    0.2250   -8.5845 O.2       4 UNK        -0.5353 
     22 CA         23.6297    0.2201   -6.9113 C.3       4 UNK         0.0277 
     23 CB         22.3466    0.0654   -7.7432 C.3       4 UNK        -0.1981 
     24 N          23.3917   -0.2912   -5.5545 N.am      4 UNK        -0.4209 
     25 C          24.2695   -0.2744   -4.5416 C.2       3 UNK         0.4942 
     26 O          25.4386    0.1064   -4.6493 O.2       3 UNK        -0.5208 
     27 CA         23.7565   -0.8145   -3.2022 C.3       3 UNK         0.0250 
     28 CB         23.5729   -2.3428   -3.2563 C.3       3 UNK        -0.1990 
     29 N          24.7137   -0.4839   -2.1526 N.am      3 UNK        -0.4232 
     30 C          24.4254   -0.2136   -0.8763 C.2       2 UNK         0.4993 
     31 O          23.2800   -0.2006   -0.4209 O.2       2 UNK        -0.5286 
     32 CA         25.6323    0.0235    0.0543 C.3       2 UNK         0.0209 
     33 CB         25.2211    0.5876    1.4277 C.3       2 UNK        -0.1931 
     34 N          26.3744   -1.2250    0.2554 N.am      2 UNK        -0.4546 
     35 C          27.2006   -1.7660   -0.6493 C.2       1 UNK         0.5154 
     36 O          27.5240   -1.1994   -1.6959 O.2       1 UNK        -0.5181 
     37 C          27.7625   -1.3808   -7.5264 C.2       5 UNK         0.5014 
     38 O          28.6379   -1.3860   -8.3909 O.2       5 UNK        -0.5248 
     39 N          27.8173   -0.6236   -6.4186 N.am      6 UNK        -0.4434 
     40 CA         28.9032    0.3029   -6.1002 C.3       6 UNK         0.0363 
     41 CB         28.7994    0.7254   -4.6275 C.3       6 UNK        -0.1936 
     42 C          28.9280    1.5280   -7.0236 C.2       6 UNK         0.5081 
     43 O          30.0104    2.0362   -7.3142 O.2       6 UNK        -0.5248 
     44 N          27.7512    1.9650   -7.4910 N.am      7 UNK        -0.4718 
     45 CA         27.6146    3.0205   -8.4938 C.3       7 UNK         0.0273 
     46 CB         26.1957    3.6105   -8.4460 C.3       7 UNK        -0.1935 
     47 C          27.9537    2.5001   -9.8986 C.2       7 UNK         0.5018 
     48 O          28.6659    3.1824  -10.6343 O.2       7 UNK        -0.5186 
     49 N          27.4677    1.2943  -10.2313 N.am      8 UNK        -0.4240 
     50 CA         27.7048    0.6173  -11.5098 C.3       8 UNK         0.0235 
     51 CB         26.8244   -0.6390  -11.6034 C.3       8 UNK        -0.2000 
     52 C          29.1838    0.2666  -11.7454 C.2       8 UNK         0.4941 
     53 O          29.7022    0.5395  -12.8286 O.2       8 UNK        -0.5273 
     54 N          29.8421   -0.3075  -10.7280 N.am      9 UNK        -0.4262 
     55 CA         31.2736   -0.6279  -10.7470 C.3       9 UNK         0.0264 
     56 CB         31.5526   -1.7375   -9.7206 C.3       9 UNK        -0.1955 
     57 C          32.1750    0.5925  -10.4800 C.2       9 UNK         0.5031 
     58 O          33.3820    0.5010  -10.7064 O.2       9 UNK        -0.5390 
     59 N          31.5850    1.6937   -9.9909 N.am      10 UNK        -0.4204 
     60 CA         32.2065    2.9721   -9.6219 C.3       10 UNK         0.0237 
     61 CB         32.8553    3.6508  -10.8473 C.3       10 UNK        -0.1985 
     62 C          33.1599    2.8939   -8.4110 C.2       10 UNK         0.4970 
     63 O          33.9309    3.8304   -8.1927 O.2       10 UNK        -0.4914 
     64 N          33.0809    1.8081   -7.6315 N.am      11 UNK        -0.4285 
     65 CA         33.8008    1.6278   -6.3633 C.3       11 UNK         0.1007 
     66 C          33.1266    2.3155   -5.1418 C.2       11 UNK         0.5703 
     67 N          31.8941    2.7984   -5.2426 N.am      11 UNK        -0.7361 
     68 O          33.7448    2.4303   -4.0862 O.2       11 UNK        -0.4986 
     69 C69        34.1492    0.1393   -6.0932 C.3       12 UNK        -0.0947 
     70 S70        32.7418   -1.0218   -6.1820 S.3       12 UNK        -0.2240 
     71 C71        32.1947   -1.0899   -4.4436 C.3       12 UNK         0.0194 
     72 H72        25.4277   -5.0387    0.3788 H         1 UNK         0.0906 
     73 H73        24.8032   -3.5650   -0.3902 H         1 UNK         0.0906 
     74 H74        24.1944   -5.1397   -0.8705 H         1 UNK         0.0906 
     75 H75        27.9994   -4.0807   -2.2427 H         1 UNK         0.3140 
     76 H76        27.2549   -3.5591    0.5469 H         1 UNK         0.1085 
     77 H77        29.7636   -2.6067   -0.8885 H         1 UNK         0.0836 
     78 H78        29.4719   -2.6750    0.8205 H         1 UNK         0.0836 
     79 H79        32.1801   -4.3688   -0.7089 H         1 UNK         0.0731 
     80 H80        31.6491   -5.8847   -1.3840 H         1 UNK         0.0731 
     81 H81        32.4421   -2.6021   -2.2132 H         1 UNK         0.1312 
     82 H82        30.2413   -2.4194   -5.8879 H         1 UNK         0.1406 
     83 H83        29.5417   -5.6243   -3.1291 H         1 UNK         0.1631 
     84 H84        28.6180   -5.7215   -5.3944 H         1 UNK         0.0717 
     85 H85        29.1572   -4.5677   -6.5853 H         1 UNK         0.0717 
     86 H86        27.3630   -4.2259   -7.8317 H         1 UNK         0.0934 
     87 H87        25.7107   -4.2300   -7.3308 H         1 UNK         0.0934 
     88 H88        26.3551   -2.3192   -8.8145 H         1 UNK         0.0739 
     89 H89        24.8243   -2.0340   -6.4489 H         1 UNK         0.3093 
     90 H90        23.8458    1.2863   -6.8165 H         1 UNK         0.0818 
     91 H91        21.5134    0.6073   -7.2953 H         1 UNK         0.0819 
     92 H92        22.4828    0.4635   -8.7500 H         1 UNK         0.0819 
     93 H93        22.0540   -0.9806   -7.8439 H         1 UNK         0.0819 
     94 H94        22.4609   -0.6390   -5.3714 H         1 UNK         0.3041 
     95 H95        22.7986   -0.3346   -2.9897 H         1 UNK         0.0784 
     96 H96        22.8442   -2.6319   -4.0142 H         1 UNK         0.0793 
     97 H97        24.5093   -2.8512   -3.4916 H         1 UNK         0.0793 
     98 H98        23.2127   -2.7313   -2.3037 H         1 UNK         0.0793 
     99 H99        25.6855   -0.4684   -2.4512 H         1 UNK         0.3024 
    100 H100       26.2827    0.7578   -0.4278 H         1 UNK         0.1171 
    101 H101       24.6692    1.5219    1.3154 H         1 UNK         0.0786 
    102 H102       26.0936    0.8010    2.0455 H         1 UNK         0.0786 
    103 H103       24.5820   -0.1046    1.9775 H         1 UNK         0.0786 
    104 H104       26.1444   -1.7476    1.0887 H         1 UNK         0.2977 
    105 H105       27.0378   -0.6446   -5.7682 H         1 UNK         0.3127 
    106 H106       29.8496   -0.2185   -6.2416 H         1 UNK         0.0770 
    107 H107       27.8711    1.2600   -4.4238 H         1 UNK         0.0814 
    108 H108       29.6213    1.3845   -4.3486 H         1 UNK         0.0814 
    109 H109       28.8394   -0.1399   -3.9650 H         1 UNK         0.0814 
    110 H110       26.9120    1.4657   -7.2312 H         1 UNK         0.2983 
    111 H111       28.3197    3.8204   -8.2551 H         1 UNK         0.0947 
    112 H112       26.0926    4.4281   -9.1606 H         1 UNK         0.0806 
    113 H113       25.9675    4.0132   -7.4591 H         1 UNK         0.0806 
    114 H114       25.4340    2.8699   -8.6899 H         1 UNK         0.0806 
    115 H115       26.8405    0.8311   -9.5772 H         1 UNK         0.3000 
    116 H116       27.3984    1.3038  -12.3020 H         1 UNK         0.0850 
    117 H117       26.9296   -1.1160  -12.5786 H         1 UNK         0.0810 
    118 H118       25.7696   -0.3967  -11.4717 H         1 UNK         0.0810 
    119 H119       27.0951   -1.3778  -10.8495 H         1 UNK         0.0810 
    120 H120       29.3325   -0.5608   -9.8817 H         1 UNK         0.3040 
    121 H121       31.5334   -1.0114  -11.7360 H         1 UNK         0.0766 
    122 H122       32.6074   -2.0156   -9.7152 H         1 UNK         0.0812 
    123 H123       30.9799   -2.6376   -9.9441 H         1 UNK         0.0812 
    124 H124       31.2932   -1.4219   -8.7104 H         1 UNK         0.0812 
    125 H125       30.5883    1.6480   -9.8271 H         1 UNK         0.3205 
    126 H126       31.3816    3.6092   -9.2993 H         1 UNK         0.0754 
    127 H127       33.1663    4.6695  -10.6131 H         1 UNK         0.0769 
    128 H128       32.1557    3.7119  -11.6812 H         1 UNK         0.0769 
    129 H129       33.7400    3.1126  -11.1887 H         1 UNK         0.0769 
    130 H130       32.3857    1.1091   -7.8470 H         1 UNK         0.2981 
    131 H131       34.7604    2.1383   -6.4649 H         1 UNK         0.0541 
    132 H132       31.3521    2.6623   -6.0904 H         1 UNK         0.3459 
    133 H133       31.4824    3.2615   -4.4493 H         1 UNK         0.3459 
    134 H134       34.6670    0.0242   -5.1395 H         1 UNK         0.0612 
    135 H135       34.8682   -0.1892   -6.8450 H         1 UNK         0.0612 
    136 H136       33.0683   -0.9939   -3.7975 H         1 UNK         0.0624 
    137 H137       31.5609   -0.2285   -4.2348 H         1 UNK         0.0624 
@<TRIPOS>BOND
     1    1    2 1    
     2    1   72 1    
     3    1   73 1    
     4    1   74 1    
     5    2    3 2    
     6    2    4 am   BACKBONE|DICT|INTERRES
     7    4    5 1    
     8    4   75 1    
     9    5    6 1    
    10    5   35 1    
    11    5   76 1    
    12    6    7 1    
    13    6   77 1    
    14    6   78 1    
    15    7    8 1    
    16    8    9 1    
    17    8   79 1    
    18    8   80 1    
    19    9   10 ar   
    20    9   14 ar   
    21   10   11 ar   
    22   10   81 1    
    23   11   12 ar   
    24   11   71 1    
    25   12   13 ar   
    26   12   82 1    
    27   13   14 ar   
    28   13   15 1    
    29   14   83 1    
    30   15   16 1    
    31   15   84 1    
    32   15   85 1    
    33   16   17 1    
    34   17   18 1    
    35   17   86 1    
    36   17   87 1    
    37   18   19 1    
    38   18   37 1    
    39   18   88 1    
    40   19   20 am   BACKBONE|DICT|INTERRES
    41   19   89 1    
    42   20   21 2    
    43   20   22 1    
    44   22   23 1    
    45   22   24 1    
    46   22   90 1    
    47   23   91 1    
    48   23   92 1    
    49   23   93 1    
    50   24   25 am   BACKBONE|DICT|INTERRES
    51   24   94 1    
    52   25   26 2    
    53   25   27 1    
    54   27   28 1    
    55   27   29 1    
    56   27   95 1    
    57   28   96 1    
    58   28   97 1    
    59   28   98 1    
    60   29   30 am   BACKBONE|DICT|INTERRES
    61   29   99 1    
    62   30   31 2    
    63   30   32 1    
    64   32   33 1    
    65   32   34 1    
    66   32  100 1    
    67   33  101 1    
    68   33  102 1    
    69   33  103 1    
    70   34   35 am   BACKBONE|DICT|INTERRES
    71   34  104 1    
    72   35   36 2    
    73   37   38 2    
    74   37   39 am   BACKBONE|DICT|INTERRES
    75   39   40 1    
    76   39  105 1    
    77   40   41 1    
    78   40   42 1    
    79   40  106 1    
    80   41  107 1    
    81   41  108 1    
    82   41  109 1    
    83   42   43 2    
    84   42   44 am   BACKBONE|DICT|INTERRES
    85   44   45 1    
    86   44  110 1    
    87   45   46 1    
    88   45   47 1    
    89   45  111 1    
    90   46  112 1    
    91   46  113 1    
    92   46  114 1    
    93   47   48 2    
    94   47   49 am   BACKBONE|DICT|INTERRES
    95   49   50 1    
    96   49  115 1    
    97   50   51 1    
    98   50   52 1    
    99   50  116 1    
   100   51  117 1    
   101   51  118 1    
   102   51  119 1    
   103   52   53 2    
   104   52   54 am   BACKBONE|DICT|INTERRES
   105   54   55 1    
   106   54  120 1    
   107   55   56 1    
   108   55   57 1    
   109   55  121 1    
   110   56  122 1    
   111   56  123 1    
   112   56  124 1    
   113   57   58 2    
   114   57   59 am   BACKBONE|DICT|INTERRES
   115   59   60 1    
   116   59  125 1    
   117   60   61 1    
   118   60   62 1    
   119   60  126 1    
   120   61  127 1    
   121   61  128 1    
   122   61  129 1    
   123   62   63 2    
   124   62   64 am   BACKBONE|DICT|INTERRES
   125   64   65 1    
   126   64  130 1    
   127   65   66 1    
   128   65   69 1    
   129   65  131 1    
   130   66   67 am   BACKBONE|DICT|INTERRES
   131   66   68 2    
   132   67  132 1    
   133   67  133 1    
   134   69   70 1    
   135   69  134 1    
   136   69  135 1    
   137   70   71 1    
   138   71  136 1    
   139   71  137 1    
@<TRIPOS>SUBSTRUCTURE
     1 UNK         1 GROUP             0       ****    0 ROOT    
