@<TRIPOS>MOLECULE
3R137
137   139    1
SMALL
USER_CHARGES


@<TRIPOS>ATOM
      1 CA         27.0491   -2.9981    2.8849 C.3       0 UNK        -0.2020 
      2 C          27.2094   -3.2437    1.3920 C.2       0 UNK         0.4855 
      3 O          26.5748   -2.5601    0.5891 O.2       0 UNK        -0.5197 
      4 N          28.0585   -4.2082    1.0175 N.am      1 UNK        -0.4892 
      5 CA         28.3288   -4.6001   -0.3706 C.3       1 UNK         0.0835 
      6 C6         29.5971   -5.4904   -0.4806 C.3       12 UNK        -0.0855 
      7 S7         31.0945   -4.7186    0.2273 S.3       12 UNK        -0.2931 
      8 C8         31.8747   -3.9835   -1.2476 C.3       12 UNK         0.0378 
      9 C9         30.9915   -2.9087   -1.8623 C.ar      12 UNK        -0.0802 
     10 C10        30.3724   -3.1217   -3.0971 C.ar      12 UNK        -0.0944 
     11 C11        29.5149   -2.1563   -3.6288 C.ar      12 UNK        -0.0787 
     12 C12        29.2608   -0.9882   -2.9055 C.ar      12 UNK        -0.0862 
     13 C13        29.9121   -0.7335   -1.6925 C.ar      12 UNK        -0.0733 
     14 C14        30.7781   -1.7055   -1.1818 C.ar      12 UNK        -0.0832 
     15 C15        29.7322    0.5660   -0.9015 C.3       12 UNK         0.0240 
     16 S16        28.2794    1.5850   -1.3408 S.3       12 UNK        -0.2522 
     17 C17        28.9142    2.7304   -2.6251 C.3       12 UNK        -0.0967 
     18 CA         28.4525    2.3856   -4.0699 C.3       5 UNK         0.0660 
     19 N          27.0223    2.0643   -4.1239 N.am      5 UNK        -0.4015 
     20 C          26.4418    1.2698   -5.0281 C.2       4 UNK         0.4946 
     21 O          27.0309    0.7957   -6.0008 O.2       4 UNK        -0.5353 
     22 CA         24.9490    0.9654   -4.8223 C.3       4 UNK         0.0277 
     23 CB         24.0930    1.8621   -5.7317 C.3       4 UNK        -0.1981 
     24 N          24.6483   -0.4405   -5.1052 N.am      4 UNK        -0.4209 
     25 C          25.1410   -1.4769   -4.4130 C.2       3 UNK         0.4942 
     26 O          25.8160   -1.3600   -3.3863 O.2       3 UNK        -0.5208 
     27 CA         24.8408   -2.8776   -4.9650 C.3       3 UNK         0.0250 
     28 CB         25.3319   -3.0378   -6.4212 C.3       3 UNK        -0.1990 
     29 N          25.4883   -3.8632   -4.1006 N.am      3 UNK        -0.4232 
     30 C          25.2293   -5.1754   -4.0716 C.2       2 UNK         0.4993 
     31 O          24.3622   -5.7077   -4.7663 O.2       2 UNK        -0.5286 
     32 CA         26.0700   -6.0590   -3.1330 C.3       2 UNK         0.0209 
     33 CB         26.8209   -7.1392   -3.9337 C.3       2 UNK        -0.1931 
     34 N          27.0508   -5.3050   -2.3412 N.am      2 UNK        -0.4546 
     35 C          27.1214   -5.3257   -1.0038 C.2       1 UNK         0.5154 
     36 O          26.3220   -5.9338   -0.2860 O.2       1 UNK        -0.5181 
     37 C          28.8025    3.4793   -5.1014 C.2       5 UNK         0.5014 
     38 O          29.1688    4.5940   -4.7216 O.2       5 UNK        -0.5248 
     39 N          28.6346    3.1538   -6.3885 N.am      6 UNK        -0.4434 
     40 CA         28.8253    4.0492   -7.5233 C.3       6 UNK         0.0363 
     41 CB         27.4589    4.6310   -7.9341 C.3       6 UNK        -0.1936 
     42 C          29.4568    3.2886   -8.6937 C.2       6 UNK         0.5081 
     43 O          29.3393    2.0617   -8.7825 O.2       6 UNK        -0.5248 
     44 N          30.0751    4.0473   -9.6085 N.am      7 UNK        -0.4718 
     45 CA         30.7283    3.5530  -10.8268 C.3       7 UNK         0.0273 
     46 CB         31.4180    4.7227  -11.5454 C.3       7 UNK        -0.1935 
     47 C          29.7846    2.8110  -11.7893 C.2       7 UNK         0.5018 
     48 O          30.2426    1.9225  -12.5068 O.2       7 UNK        -0.5186 
     49 N          28.4829    3.1321  -11.7408 N.am      8 UNK        -0.4240 
     50 CA         27.4098    2.4424  -12.4657 C.3       8 UNK         0.0235 
     51 CB         26.0802    3.1732  -12.2125 C.3       8 UNK        -0.2000 
     52 C          27.2744    0.9491  -12.1076 C.2       8 UNK         0.4941 
     53 O          26.8569    0.1654  -12.9606 O.2       8 UNK        -0.5273 
     54 N          27.6487    0.5819  -10.8736 N.am      9 UNK        -0.4262 
     55 CA         27.7068   -0.7990  -10.3893 C.3       9 UNK         0.0264 
     56 CB         27.1396   -0.8320   -8.9605 C.3       9 UNK        -0.1955 
     57 C          29.1417   -1.3614  -10.4036 C.2       9 UNK         0.5031 
     58 O          29.3377   -2.4906   -9.9534 O.2       9 UNK        -0.5390 
     59 N          30.1163   -0.5683  -10.8808 N.am      10 UNK        -0.4204 
     60 CA         31.5673   -0.7766  -10.7853 C.3       10 UNK         0.0237 
     61 CB         32.0126   -2.0220  -11.5823 C.3       10 UNK        -0.1985 
     62 C          32.0799   -0.7719   -9.3285 C.2       10 UNK         0.4970 
     63 O          33.0811   -1.4270   -9.0330 O.2       10 UNK        -0.4914 
     64 N          31.3972   -0.0204   -8.4552 N.am      11 UNK        -0.4285 
     65 CA         31.6812    0.1105   -7.0185 C.3       11 UNK         0.1007 
     66 C          32.1844    1.5356   -6.6407 C.2       11 UNK         0.5703 
     67 N          32.6770    2.3332   -7.5826 N.am      11 UNK        -0.7361 
     68 O          32.1442    1.9276   -5.4759 O.2       11 UNK        -0.4986 
     69 C69        30.4585   -0.3290   -6.1700 C.3       12 UNK        -0.0947 
     70 S70        30.0655   -2.1021   -6.3499 S.3       12 UNK        -0.2240 
     71 C71        28.8755   -2.3590   -4.9946 C.3       12 UNK         0.0194 
     72 H72        27.3107   -1.9678    3.1257 H         1 UNK         0.0906 
     73 H73        26.0143   -3.1660    3.1834 H         1 UNK         0.0906 
     74 H74        27.6843   -3.6564    3.4776 H         1 UNK         0.0906 
     75 H75        28.5494   -4.7427    1.7197 H         1 UNK         0.3140 
     76 H76        28.4899   -3.6813   -0.9375 H         1 UNK         0.1085 
     77 H77        29.7981   -5.7535   -1.5209 H         1 UNK         0.0836 
     78 H78        29.4387   -6.4380    0.0384 H         1 UNK         0.0836 
     79 H79        32.0994   -4.7697   -1.9703 H         1 UNK         0.0731 
     80 H80        32.8323   -3.5449   -0.9632 H         1 UNK         0.0731 
     81 H81        30.5567   -4.0347   -3.6469 H         1 UNK         0.1312 
     82 H82        28.5577   -0.2792   -3.3092 H         1 UNK         0.1406 
     83 H83        31.2737   -1.5384   -0.2347 H         1 UNK         0.1631 
     84 H84        30.6404    1.1645   -0.9845 H         1 UNK         0.0717 
     85 H85        29.6330    0.3129    0.1554 H         1 UNK         0.0717 
     86 H86        28.5696    3.7277   -2.3445 H         1 UNK         0.0934 
     87 H87        30.0041    2.7711   -2.5807 H         1 UNK         0.0934 
     88 H88        29.0179    1.5097   -4.3842 H         1 UNK         0.0739 
     89 H89        26.4661    2.4308   -3.3653 H         1 UNK         0.3093 
     90 H90        24.6843    1.1624   -3.7811 H         1 UNK         0.0818 
     91 H91        24.2762    2.9174   -5.5242 H         1 UNK         0.0819 
     92 H92        24.3161    1.6956   -6.7868 H         1 UNK         0.0819 
     93 H93        23.0283    1.6835   -5.5797 H         1 UNK         0.0819 
     94 H94        24.1264   -0.6254   -5.9487 H         1 UNK         0.3041 
     95 H95        23.7601   -3.0278   -4.9237 H         1 UNK         0.0784 
     96 H96        24.8502   -2.3245   -7.0902 H         1 UNK         0.0793 
     97 H97        26.4075   -2.8844   -6.5008 H         1 UNK         0.0793 
     98 H98        25.1110   -4.0307   -6.8126 H         1 UNK         0.0793 
     99 H99        26.1285   -3.4541   -3.4308 H         1 UNK         0.3024 
    100 H100       25.3543   -6.5612   -2.4784 H         1 UNK         0.1171 
    101 H101       27.5318   -6.7006   -4.6349 H         1 UNK         0.0786 
    102 H102       27.3711   -7.8098   -3.2736 H         1 UNK         0.0786 
    103 H103       26.1297   -7.7544   -4.5116 H         1 UNK         0.0786 
    104 H104       27.7550   -4.8009   -2.8610 H         1 UNK         0.2977 
    105 H105       28.3143    2.2149   -6.6178 H         1 UNK         0.3127 
    106 H106       29.5008    4.8633   -7.2453 H         1 UNK         0.0770 
    107 H107       26.7623    3.8456   -8.2371 H         1 UNK         0.0814 
    108 H108       27.5571    5.3244   -8.7704 H         1 UNK         0.0814 
    109 H109       27.0006    5.1835   -7.1122 H         1 UNK         0.0814 
    110 H110       30.1136    5.0458   -9.4567 H         1 UNK         0.2983 
    111 H111       31.4965    2.8400  -10.5206 H         1 UNK         0.0947 
    112 H112       31.9345    4.3797  -12.4437 H         1 UNK         0.0806 
    113 H113       32.1646    5.1969  -10.9075 H         1 UNK         0.0806 
    114 H114       30.7032    5.4871  -11.8528 H         1 UNK         0.0806 
    115 H115       28.2057    3.8793  -11.1209 H         1 UNK         0.3000 
    116 H116       27.6408    2.5023  -13.5321 H         1 UNK         0.0850 
    117 H117       25.8103    3.1679  -11.1549 H         1 UNK         0.0810 
    118 H118       25.2637    2.6986  -12.7594 H         1 UNK         0.0810 
    119 H119       26.1268    4.2110  -12.5432 H         1 UNK         0.0810 
    120 H120       27.9983    1.2867  -10.2328 H         1 UNK         0.3040 
    121 H121       27.0931   -1.4487  -11.0166 H         1 UNK         0.0766 
    122 H122       27.7658   -0.2640   -8.2718 H         1 UNK         0.0812 
    123 H123       26.1310   -0.4213   -8.9148 H         1 UNK         0.0812 
    124 H124       27.0929   -1.8538   -8.5838 H         1 UNK         0.0812 
    125 H125       29.8444    0.3112  -11.3064 H         1 UNK         0.3205 
    126 H126       32.0240    0.0919  -11.2620 H         1 UNK         0.0754 
    127 H127       33.1000   -2.0758  -11.6475 H         1 UNK         0.0769 
    128 H128       31.6291   -1.9977  -12.6024 H         1 UNK         0.0769 
    129 H129       31.6711   -2.9468  -11.1164 H         1 UNK         0.0769 
    130 H130       30.6056    0.5281   -8.7763 H         1 UNK         0.2981 
    131 H131       32.5094   -0.5469   -6.7495 H         1 UNK         0.0541 
    132 H132       33.0123    3.2476   -7.3249 H         1 UNK         0.3459 
    133 H133       32.7516    2.0145   -8.5346 H         1 UNK         0.3459 
    134 H134       29.5778    0.2534   -6.4400 H         1 UNK         0.0612 
    135 H135       30.6518   -0.1396   -5.1147 H         1 UNK         0.0612 
    136 H136       28.0369   -1.6765   -5.1348 H         1 UNK         0.0624 
    137 H137       28.4707   -3.3693   -5.0637 H         1 UNK         0.0624 
@<TRIPOS>BOND
     1    1    2 1    
     2    1   72 1    
     3    1   73 1    
     4    1   74 1    
     5    2    3 2    
     6    2    4 am   BACKBONE|DICT|INTERRES
     7    4    5 1    
     8    4   75 1    
     9    5    6 1    
    10    5   35 1    
    11    5   76 1    
    12    6    7 1    
    13    6   77 1    
    14    6   78 1    
    15    7    8 1    
    16    8    9 1    
    17    8   79 1    
    18    8   80 1    
    19    9   10 ar   
    20    9   14 ar   
    21   10   11 ar   
    22   10   81 1    
    23   11   12 ar   
    24   11   71 1    
    25   12   13 ar   
    26   12   82 1    
    27   13   14 ar   
    28   13   15 1    
    29   14   83 1    
    30   15   16 1    
    31   15   84 1    
    32   15   85 1    
    33   16   17 1    
    34   17   18 1    
    35   17   86 1    
    36   17   87 1    
    37   18   19 1    
    38   18   37 1    
    39   18   88 1    
    40   19   20 am   BACKBONE|DICT|INTERRES
    41   19   89 1    
    42   20   21 2    
    43   20   22 1    
    44   22   23 1    
    45   22   24 1    
    46   22   90 1    
    47   23   91 1    
    48   23   92 1    
    49   23   93 1    
    50   24   25 am   BACKBONE|DICT|INTERRES
    51   24   94 1    
    52   25   26 2    
    53   25   27 1    
    54   27   28 1    
    55   27   29 1    
    56   27   95 1    
    57   28   96 1    
    58   28   97 1    
    59   28   98 1    
    60   29   30 am   BACKBONE|DICT|INTERRES
    61   29   99 1    
    62   30   31 2    
    63   30   32 1    
    64   32   33 1    
    65   32   34 1    
    66   32  100 1    
    67   33  101 1    
    68   33  102 1    
    69   33  103 1    
    70   34   35 am   BACKBONE|DICT|INTERRES
    71   34  104 1    
    72   35   36 2    
    73   37   38 2    
    74   37   39 am   BACKBONE|DICT|INTERRES
    75   39   40 1    
    76   39  105 1    
    77   40   41 1    
    78   40   42 1    
    79   40  106 1    
    80   41  107 1    
    81   41  108 1    
    82   41  109 1    
    83   42   43 2    
    84   42   44 am   BACKBONE|DICT|INTERRES
    85   44   45 1    
    86   44  110 1    
    87   45   46 1    
    88   45   47 1    
    89   45  111 1    
    90   46  112 1    
    91   46  113 1    
    92   46  114 1    
    93   47   48 2    
    94   47   49 am   BACKBONE|DICT|INTERRES
    95   49   50 1    
    96   49  115 1    
    97   50   51 1    
    98   50   52 1    
    99   50  116 1    
   100   51  117 1    
   101   51  118 1    
   102   51  119 1    
   103   52   53 2    
   104   52   54 am   BACKBONE|DICT|INTERRES
   105   54   55 1    
   106   54  120 1    
   107   55   56 1    
   108   55   57 1    
   109   55  121 1    
   110   56  122 1    
   111   56  123 1    
   112   56  124 1    
   113   57   58 2    
   114   57   59 am   BACKBONE|DICT|INTERRES
   115   59   60 1    
   116   59  125 1    
   117   60   61 1    
   118   60   62 1    
   119   60  126 1    
   120   61  127 1    
   121   61  128 1    
   122   61  129 1    
   123   62   63 2    
   124   62   64 am   BACKBONE|DICT|INTERRES
   125   64   65 1    
   126   64  130 1    
   127   65   66 1    
   128   65   69 1    
   129   65  131 1    
   130   66   67 am   BACKBONE|DICT|INTERRES
   131   66   68 2    
   132   67  132 1    
   133   67  133 1    
   134   69   70 1    
   135   69  134 1    
   136   69  135 1    
   137   70   71 1    
   138   71  136 1    
   139   71  137 1    
@<TRIPOS>SUBSTRUCTURE
     1 UNK         1 GROUP             0       ****    0 ROOT    
