@<TRIPOS>MOLECULE
3R137
137   139    1
SMALL
USER_CHARGES


@<TRIPOS>ATOM
      1 CA         27.3540   -7.3031   -2.0147 C.3       0 UNK        -0.2020 
      2 C          27.1749   -5.8260   -1.7016 C.2       0 UNK         0.4855 
      3 O          27.2105   -5.0032   -2.6152 O.2       0 UNK        -0.5197 
      4 N          26.9656   -5.4881   -0.4212 N.am      1 UNK        -0.4892 
      5 CA         26.8247   -4.1409    0.1679 C.3       1 UNK         0.0835 
      6 C6         28.0510   -3.2164   -0.0538 C.3       12 UNK        -0.0855 
      7 S7         29.6146   -3.9641    0.5163 S.3       12 UNK        -0.2931 
      8 C8         30.8230   -2.7278   -0.0749 C.3       12 UNK         0.0378 
      9 C9         31.0943   -2.7002   -1.5829 C.ar      12 UNK        -0.0802 
     10 C10        32.0207   -1.7678   -2.0605 C.ar      12 UNK        -0.0944 
     11 C11        32.3336   -1.6997   -3.4200 C.ar      12 UNK        -0.0787 
     12 C12        31.7049   -2.5670   -4.3166 C.ar      12 UNK        -0.0862 
     13 C13        30.7610   -3.4935   -3.8644 C.ar      12 UNK        -0.0733 
     14 C14        30.4728   -3.5635   -2.4979 C.ar      12 UNK        -0.0832 
     15 C15        30.0720   -4.4461   -4.8367 C.3       12 UNK         0.0240 
     16 S16        29.3730   -3.6147   -6.3012 S.3       12 UNK        -0.2522 
     17 C17        28.0502   -2.5932   -5.5740 C.3       12 UNK        -0.0967 
     18 CA         27.4203   -1.6415   -6.6273 C.3       5 UNK         0.0660 
     19 N          25.9941   -1.4079   -6.3696 N.am      5 UNK        -0.4015 
     20 C          25.1494   -0.8713   -7.2658 C.2       4 UNK         0.4946 
     21 O          25.4857   -0.5324   -8.3987 O.2       4 UNK        -0.5353 
     22 CA         23.6903   -0.6375   -6.8334 C.3       4 UNK         0.0277 
     23 CB         22.8377   -1.8779   -7.1440 C.3       4 UNK        -0.1981 
     24 N          23.5372   -0.2871   -5.4221 N.am      4 UNK        -0.4209 
     25 C          24.1330    0.7393   -4.7977 C.2       3 UNK         0.4942 
     26 O          24.8280    1.5786   -5.3690 O.2       3 UNK        -0.5208 
     27 CA         23.9801    0.8038   -3.2671 C.3       3 UNK         0.0250 
     28 CB         22.8896    1.8150   -2.8805 C.3       3 UNK        -0.1990 
     29 N          23.6902   -0.4941   -2.6405 N.am      3 UNK        -0.4232 
     30 C          24.4782   -1.5767   -2.7151 C.2       2 UNK         0.4993 
     31 O          25.5418   -1.6109   -3.3422 O.2       2 UNK        -0.5286 
     32 CA         23.9463   -2.8553   -2.0565 C.3       2 UNK         0.0209 
     33 CB         23.2631   -3.7479   -3.1058 C.3       2 UNK        -0.1931 
     34 N          25.0551   -3.5912   -1.4605 N.am      2 UNK        -0.4546 
     35 C          25.5292   -3.3981   -0.2265 C.2       1 UNK         0.5154 
     36 O          24.9854   -2.6610    0.5981 O.2       1 UNK        -0.5181 
     37 C          28.1971   -0.3122   -6.7606 C.2       5 UNK         0.5014 
     38 O          29.0224   -0.1628   -7.6665 O.2       5 UNK        -0.5248 
     39 N          27.8730    0.6511   -5.8852 N.am      6 UNK        -0.4434 
     40 CA         28.4029    2.0132   -5.9236 C.3       6 UNK         0.0363 
     41 CB         28.1104    2.7254   -4.5938 C.3       6 UNK        -0.1936 
     42 C          27.8473    2.8121   -7.1132 C.2       6 UNK         0.5081 
     43 O          28.6161    3.5014   -7.7812 O.2       6 UNK        -0.5248 
     44 N          26.5407    2.6794   -7.3888 N.am      7 UNK        -0.4718 
     45 CA         25.8567    3.3155   -8.5222 C.3       7 UNK         0.0273 
     46 CB         24.3420    3.0892   -8.4091 C.3       7 UNK        -0.1935 
     47 C          26.3739    2.8400   -9.8918 C.2       7 UNK         0.5018 
     48 O          26.4697    3.6493  -10.8147 O.2       7 UNK        -0.5186 
     49 N          26.7417    1.5541   -9.9874 N.am      8 UNK        -0.4240 
     50 CA         27.4195    0.9544  -11.1410 C.3       8 UNK         0.0235 
     51 CB         27.3136   -0.5772  -11.0428 C.3       8 UNK        -0.2000 
     52 C          28.8953    1.3774  -11.2863 C.2       8 UNK         0.4941 
     53 O          29.5036    1.0514  -12.3065 O.2       8 UNK        -0.5273 
     54 N          29.4472    2.0708  -10.2774 N.am      9 UNK        -0.4262 
     55 CA         30.8293    2.5467  -10.1674 C.3       9 UNK         0.0264 
     56 CB         31.1445    3.5992  -11.2519 C.3       9 UNK        -0.1955 
     57 C          31.8618    1.4063  -10.1147 C.2       9 UNK         0.5031 
     58 O          32.9907    1.5837  -10.5786 O.2       9 UNK        -0.5390 
     59 N          31.4841    0.2662   -9.5128 N.am      10 UNK        -0.4204 
     60 CA         32.3503   -0.9086   -9.3485 C.3       10 UNK         0.0237 
     61 CB         31.5208   -2.0759   -8.7969 C.3       10 UNK        -0.1985 
     62 C          33.5700   -0.6494   -8.4455 C.2       10 UNK         0.4970 
     63 O          34.5801   -1.3412   -8.5780 O.2       10 UNK        -0.4914 
     64 N          33.4540    0.3482   -7.5618 N.am      11 UNK        -0.4285 
     65 CA         34.5212    0.8422   -6.6839 C.3       11 UNK         0.1007 
     66 C          35.6051    1.6944   -7.4083 C.2       11 UNK         0.5703 
     67 N          35.4384    2.0614   -8.6752 N.am      11 UNK        -0.7361 
     68 O          36.6248    2.0239   -6.8073 O.2       11 UNK        -0.4986 
     69 C69        33.9498    1.5929   -5.4468 C.3       12 UNK        -0.0947 
     70 S70        32.5385    0.7567   -4.6431 S.3       12 UNK        -0.2240 
     71 C71        33.3569   -0.6981   -3.9257 C.3       12 UNK         0.0194 
     72 H72        28.3228   -7.4696   -2.4850 H         1 UNK         0.0906 
     73 H73        26.5789   -7.6366   -2.7041 H         1 UNK         0.0906 
     74 H74        27.3014   -7.9211   -1.1186 H         1 UNK         0.0906 
     75 H75        26.9193   -6.2342    0.2595 H         1 UNK         0.3140 
     76 H76        26.7441   -4.3115    1.2430 H         1 UNK         0.1085 
     77 H77        27.9187   -2.2777    0.4884 H         1 UNK         0.0836 
     78 H78        28.1368   -2.9422   -1.1064 H         1 UNK         0.0836 
     79 H79        30.4959   -1.7380    0.2475 H         1 UNK         0.0731 
     80 H80        31.7672   -2.9190    0.4372 H         1 UNK         0.0731 
     81 H81        32.5083   -1.0948   -1.3678 H         1 UNK         0.1312 
     82 H82        31.9447   -2.5135   -5.3699 H         1 UNK         0.1406 
     83 H83        29.7597   -4.2997   -2.1582 H         1 UNK         0.1631 
     84 H84        29.2757   -5.0034   -4.3417 H         1 UNK         0.0717 
     85 H85        30.8008   -5.1850   -5.1718 H         1 UNK         0.0717 
     86 H86        27.2998   -3.2827   -5.1822 H         1 UNK         0.0934 
     87 H87        28.4274   -2.0477   -4.7061 H         1 UNK         0.0934 
     88 H88        27.4701   -2.1319   -7.6025 H         1 UNK         0.0739 
     89 H89        25.6633   -1.6139   -5.4325 H         1 UNK         0.3093 
     90 H90        23.3002    0.1963   -7.4181 H         1 UNK         0.0818 
     91 H91        22.9158   -2.1500   -8.1978 H         1 UNK         0.0819 
     92 H92        23.1533   -2.7436   -6.5600 H         1 UNK         0.0819 
     93 H93        21.7826   -1.6981   -6.9366 H         1 UNK         0.0819 
     94 H94        22.9766   -0.9114   -4.8621 H         1 UNK         0.3041 
     95 H95        24.9327    1.1559   -2.8657 H         1 UNK         0.0784 
     96 H96        23.0949    2.7948   -3.3146 H         1 UNK         0.0793 
     97 H97        21.9052    1.5031   -3.2319 H         1 UNK         0.0793 
     98 H98        22.8355    1.9480   -1.7998 H         1 UNK         0.0793 
     99 H99        22.8267   -0.5552   -2.1193 H         1 UNK         0.3024 
    100 H100       23.2193   -2.5956   -1.2832 H         1 UNK         0.1171 
    101 H101       23.9477   -4.0240   -3.9094 H         1 UNK         0.0786 
    102 H102       22.8882   -4.6681   -2.6572 H         1 UNK         0.0786 
    103 H103       22.4114   -3.2403   -3.5604 H         1 UNK         0.0786 
    104 H104       25.6449   -4.1273   -2.0932 H         1 UNK         0.2977 
    105 H105       27.1488    0.4648   -5.2061 H         1 UNK         0.3127 
    106 H106       29.4873    1.9504   -6.0412 H         1 UNK         0.0770 
    107 H107       28.5237    3.7349   -4.5960 H         1 UNK         0.0814 
    108 H108       27.0402    2.8128   -4.4040 H         1 UNK         0.0814 
    109 H109       28.5590    2.1947   -3.7539 H         1 UNK         0.0814 
    110 H110       25.9619    2.1394   -6.7484 H         1 UNK         0.2983 
    111 H111       26.0463    4.3890   -8.4553 H         1 UNK         0.0947 
    112 H112       24.0858    2.0375   -8.5297 H         1 UNK         0.0806 
    113 H113       23.8078    3.6434   -9.1818 H         1 UNK         0.0806 
    114 H114       23.9580    3.4225   -7.4447 H         1 UNK         0.0806 
    115 H115       26.5407    0.9314   -9.2094 H         1 UNK         0.3000 
    116 H116       26.9015    1.2764  -12.0467 H         1 UNK         0.0850 
    117 H117       27.7870   -1.0620  -11.8977 H         1 UNK         0.0810 
    118 H118       26.2732   -0.9019  -11.0244 H         1 UNK         0.0810 
    119 H119       27.7984   -0.9561  -10.1419 H         1 UNK         0.0810 
    120 H120       28.8605    2.3015   -9.4831 H         1 UNK         0.3040 
    121 H121       30.8963    3.0486   -9.2014 H         1 UNK         0.0766 
    122 H122       31.1733    3.1589  -12.2490 H         1 UNK         0.0812 
    123 H123       32.1153    4.0638  -11.0754 H         1 UNK         0.0812 
    124 H124       30.4015    4.3968  -11.2575 H         1 UNK         0.0812 
    125 H125       30.5531    0.2040   -9.1107 H         1 UNK         0.3205 
    126 H126       32.7243   -1.1868  -10.3359 H         1 UNK         0.0754 
    127 H127       32.1175   -2.9865   -8.7297 H         1 UNK         0.0769 
    128 H128       30.6616   -2.2943   -9.4315 H         1 UNK         0.0769 
    129 H129       31.1507   -1.8544   -7.7959 H         1 UNK         0.0769 
    130 H130       32.5778    0.8444   -7.5105 H         1 UNK         0.2981 
    131 H131       35.0570   -0.0330   -6.3146 H         1 UNK         0.0541 
    132 H132       36.1553    2.6090   -9.1238 H         1 UNK         0.3459 
    133 H133       34.6115    1.7954   -9.1957 H         1 UNK         0.3459 
    134 H134       33.6068    2.5877   -5.7372 H         1 UNK         0.0612 
    135 H135       34.7309    1.7476   -4.7003 H         1 UNK         0.0612 
    136 H136       33.9833   -1.1836   -4.6740 H         1 UNK         0.0624 
    137 H137       34.0217   -0.3796   -3.1214 H         1 UNK         0.0624 
@<TRIPOS>BOND
     1    1    2 1    
     2    1   72 1    
     3    1   73 1    
     4    1   74 1    
     5    2    3 2    
     6    2    4 am   BACKBONE|DICT|INTERRES
     7    4    5 1    
     8    4   75 1    
     9    5    6 1    
    10    5   35 1    
    11    5   76 1    
    12    6    7 1    
    13    6   77 1    
    14    6   78 1    
    15    7    8 1    
    16    8    9 1    
    17    8   79 1    
    18    8   80 1    
    19    9   10 ar   
    20    9   14 ar   
    21   10   11 ar   
    22   10   81 1    
    23   11   12 ar   
    24   11   71 1    
    25   12   13 ar   
    26   12   82 1    
    27   13   14 ar   
    28   13   15 1    
    29   14   83 1    
    30   15   16 1    
    31   15   84 1    
    32   15   85 1    
    33   16   17 1    
    34   17   18 1    
    35   17   86 1    
    36   17   87 1    
    37   18   19 1    
    38   18   37 1    
    39   18   88 1    
    40   19   20 am   BACKBONE|DICT|INTERRES
    41   19   89 1    
    42   20   21 2    
    43   20   22 1    
    44   22   23 1    
    45   22   24 1    
    46   22   90 1    
    47   23   91 1    
    48   23   92 1    
    49   23   93 1    
    50   24   25 am   BACKBONE|DICT|INTERRES
    51   24   94 1    
    52   25   26 2    
    53   25   27 1    
    54   27   28 1    
    55   27   29 1    
    56   27   95 1    
    57   28   96 1    
    58   28   97 1    
    59   28   98 1    
    60   29   30 am   BACKBONE|DICT|INTERRES
    61   29   99 1    
    62   30   31 2    
    63   30   32 1    
    64   32   33 1    
    65   32   34 1    
    66   32  100 1    
    67   33  101 1    
    68   33  102 1    
    69   33  103 1    
    70   34   35 am   BACKBONE|DICT|INTERRES
    71   34  104 1    
    72   35   36 2    
    73   37   38 2    
    74   37   39 am   BACKBONE|DICT|INTERRES
    75   39   40 1    
    76   39  105 1    
    77   40   41 1    
    78   40   42 1    
    79   40  106 1    
    80   41  107 1    
    81   41  108 1    
    82   41  109 1    
    83   42   43 2    
    84   42   44 am   BACKBONE|DICT|INTERRES
    85   44   45 1    
    86   44  110 1    
    87   45   46 1    
    88   45   47 1    
    89   45  111 1    
    90   46  112 1    
    91   46  113 1    
    92   46  114 1    
    93   47   48 2    
    94   47   49 am   BACKBONE|DICT|INTERRES
    95   49   50 1    
    96   49  115 1    
    97   50   51 1    
    98   50   52 1    
    99   50  116 1    
   100   51  117 1    
   101   51  118 1    
   102   51  119 1    
   103   52   53 2    
   104   52   54 am   BACKBONE|DICT|INTERRES
   105   54   55 1    
   106   54  120 1    
   107   55   56 1    
   108   55   57 1    
   109   55  121 1    
   110   56  122 1    
   111   56  123 1    
   112   56  124 1    
   113   57   58 2    
   114   57   59 am   BACKBONE|DICT|INTERRES
   115   59   60 1    
   116   59  125 1    
   117   60   61 1    
   118   60   62 1    
   119   60  126 1    
   120   61  127 1    
   121   61  128 1    
   122   61  129 1    
   123   62   63 2    
   124   62   64 am   BACKBONE|DICT|INTERRES
   125   64   65 1    
   126   64  130 1    
   127   65   66 1    
   128   65   69 1    
   129   65  131 1    
   130   66   67 am   BACKBONE|DICT|INTERRES
   131   66   68 2    
   132   67  132 1    
   133   67  133 1    
   134   69   70 1    
   135   69  134 1    
   136   69  135 1    
   137   70   71 1    
   138   71  136 1    
   139   71  137 1    
@<TRIPOS>SUBSTRUCTURE
     1 UNK         1 GROUP             0       ****    0 ROOT    
