@<TRIPOS>MOLECULE
3R137
137   139    1
SMALL
USER_CHARGES


@<TRIPOS>ATOM
      1 CA         26.2892   -6.5849   -5.0470 C.3       0 UNK        -0.2020 
      2 C          26.2491   -5.7382   -3.7841 C.2       0 UNK         0.4855 
      3 O          25.1732   -5.2982   -3.3760 O.2       0 UNK        -0.5197 
      4 N          27.4142   -5.5029   -3.1642 N.am      1 UNK        -0.4892 
      5 CA         27.5874   -4.6623   -1.9740 C.3       1 UNK         0.0835 
      6 C6         29.0451   -4.7297   -1.4558 C.3       12 UNK        -0.0855 
      7 S7         29.2582   -3.9497    0.1850 S.3       12 UNK        -0.2931 
      8 C8         31.0240   -3.4814    0.1757 C.3       12 UNK         0.0378 
      9 C9         31.3811   -2.5741   -0.9944 C.ar      12 UNK        -0.0802 
     10 C10        32.2463   -3.0261   -1.9949 C.ar      12 UNK        -0.0944 
     11 C11        32.5236   -2.2256   -3.1055 C.ar      12 UNK        -0.0787 
     12 C12        31.9304   -0.9642   -3.2142 C.ar      12 UNK        -0.0862 
     13 C13        31.0708   -0.4951   -2.2165 C.ar      12 UNK        -0.0733 
     14 C14        30.8191   -1.2984   -1.0975 C.ar      12 UNK        -0.0832 
     15 C15        30.3873    0.8592   -2.3680 C.3       12 UNK         0.0240 
     16 S16        28.5840    0.6809   -2.2313 S.3       12 UNK        -0.2522 
     17 C17        27.9377    2.0836   -3.1980 C.3       12 UNK        -0.0967 
     18 CA         27.9210    1.8698   -4.7413 C.3       5 UNK         0.0660 
     19 N          27.7750    0.4744   -5.1564 N.am      5 UNK        -0.4015 
     20 C          28.0624    0.0011   -6.3761 C.2       4 UNK         0.4946 
     21 O          28.5670    0.6731   -7.2791 O.2       4 UNK        -0.5353 
     22 CA         27.7142   -1.4709   -6.6424 C.3       4 UNK         0.0277 
     23 CB         28.9142   -2.3750   -6.3169 C.3       4 UNK        -0.1981 
     24 N          26.5362   -1.9077   -5.8867 N.am      4 UNK        -0.4209 
     25 C          25.2856   -1.4998   -6.1573 C.2       3 UNK         0.4942 
     26 O          25.0040   -0.7404   -7.0829 O.2       3 UNK        -0.5208 
     27 CA         24.1607   -1.9727   -5.2210 C.3       3 UNK         0.0250 
     28 CB         23.5722   -3.3032   -5.7138 C.3       3 UNK        -0.1990 
     29 N          24.5848   -2.1020   -3.8260 N.am      3 UNK        -0.4232 
     30 C          25.0055   -1.0785   -3.0665 C.2       2 UNK         0.4993 
     31 O          25.0454    0.0894   -3.4571 O.2       2 UNK        -0.5286 
     32 CA         25.5103   -1.4137   -1.6514 C.3       2 UNK         0.0209 
     33 CB         24.3645   -1.2869   -0.6353 C.3       2 UNK        -0.1931 
     34 N          26.1335   -2.7364   -1.5174 N.am      2 UNK        -0.4546 
     35 C          27.1345   -3.2166   -2.2715 C.2       1 UNK         0.5154 
     36 O          27.6505   -2.6010   -3.2069 O.2       1 UNK        -0.5181 
     37 C          26.8175    2.7213   -5.3958 C.2       5 UNK         0.5014 
     38 O          27.1220    3.7397   -6.0161 O.2       5 UNK        -0.5248 
     39 N          25.5596    2.2683   -5.2644 N.am      6 UNK        -0.4434 
     40 CA         24.3579    2.9259   -5.7880 C.3       6 UNK         0.0363 
     41 CB         23.1097    2.1669   -5.3115 C.3       6 UNK        -0.1936 
     42 C          24.3472    3.0703   -7.3186 C.2       6 UNK         0.5081 
     43 O          23.9299    4.1128   -7.8233 O.2       6 UNK        -0.5248 
     44 N          24.8326    2.0432   -8.0293 N.am      7 UNK        -0.4718 
     45 CA         25.0076    2.0534   -9.4852 C.3       7 UNK         0.0273 
     46 CB         25.1489    0.6036   -9.9796 C.3       7 UNK        -0.1935 
     47 C          26.2108    2.8907   -9.9595 C.2       7 UNK         0.5018 
     48 O          26.3434    3.1004  -11.1659 O.2       7 UNK        -0.5186 
     49 N          27.0784    3.3149   -9.0254 N.am      8 UNK        -0.4240 
     50 CA         28.3660    3.9875   -9.2412 C.3       8 UNK         0.0235 
     51 CB         28.1670    5.3885   -9.8579 C.3       8 UNK        -0.2000 
     52 C          29.3722    3.1193  -10.0242 C.2       8 UNK         0.4941 
     53 O          30.2272    3.6541  -10.7326 O.2       8 UNK        -0.5273 
     54 N          29.2541    1.7930   -9.8763 N.am      9 UNK        -0.4262 
     55 CA         30.1439    0.8010  -10.4754 C.3       9 UNK         0.0264 
     56 CB         29.3907   -0.5310  -10.6282 C.3       9 UNK        -0.1955 
     57 C          31.4113    0.6084   -9.6328 C.2       9 UNK         0.5031 
     58 O          32.4778    0.3651  -10.1992 O.2       9 UNK        -0.5390 
     59 N          31.2645    0.6999   -8.2997 N.am      10 UNK        -0.4204 
     60 CA         32.3168    0.6042   -7.2775 C.3       10 UNK         0.0237 
     61 CB         33.1736    1.8870   -7.2793 C.3       10 UNK        -0.1985 
     62 C          33.1674   -0.6806   -7.3755 C.2       10 UNK         0.4970 
     63 O          34.3664   -0.6485   -7.0943 O.2       10 UNK        -0.4914 
     64 N          32.5213   -1.7793   -7.7877 N.am      11 UNK        -0.4285 
     65 CA         33.1093   -3.1042   -8.0486 C.3       11 UNK         0.1007 
     66 C          34.0652   -3.1565   -9.2807 C.2       11 UNK         0.5703 
     67 N          34.0874   -2.1555  -10.1545 N.am      11 UNK        -0.7361 
     68 O          34.7779   -4.1394   -9.4722 O.2       11 UNK        -0.4986 
     69 C69        33.7199   -3.7780   -6.7839 C.3       12 UNK        -0.0947 
     70 S70        32.5686   -3.8021   -5.3672 S.3       12 UNK        -0.2240 
     71 C71        33.4532   -2.7285   -4.1957 C.3       12 UNK         0.0194 
     72 H72        25.9945   -5.9879   -5.9094 H         1 UNK         0.0906 
     73 H73        27.2838   -6.9877   -5.2371 H         1 UNK         0.0906 
     74 H74        25.5969   -7.4219   -4.9592 H         1 UNK         0.0906 
     75 H75        28.2658   -5.8691   -3.5650 H         1 UNK         0.3140 
     76 H76        26.9379   -5.0781   -1.2005 H         1 UNK         0.1085 
     77 H77        29.3603   -5.7702   -1.3632 H         1 UNK         0.0836 
     78 H78        29.7168   -4.2767   -2.1862 H         1 UNK         0.0836 
     79 H79        31.6287   -4.3896    0.1619 H         1 UNK         0.0731 
     80 H80        31.2603   -2.9703    1.1099 H         1 UNK         0.0731 
     81 H81        32.6869   -4.0114   -1.9250 H         1 UNK         0.1312 
     82 H82        32.1318   -0.3531   -4.0824 H         1 UNK         0.1406 
     83 H83        30.1416   -0.9512   -0.3291 H         1 UNK         0.1631 
     84 H84        30.6320    1.3068   -3.3325 H         1 UNK         0.0717 
     85 H85        30.7468    1.5438   -1.5989 H         1 UNK         0.0717 
     86 H86        26.9303    2.2569   -2.8127 H         1 UNK         0.0934 
     87 H87        28.5026    2.9835   -2.9484 H         1 UNK         0.0934 
     88 H88        28.8807    2.2187   -5.1293 H         1 UNK         0.0739 
     89 H89        27.3958   -0.1570   -4.4636 H         1 UNK         0.3093 
     90 H90        27.4892   -1.5711   -7.7063 H         1 UNK         0.0818 
     91 H91        28.6817   -3.4256   -6.4905 H         1 UNK         0.0819 
     92 H92        29.7686   -2.1254   -6.9446 H         1 UNK         0.0819 
     93 H93        29.2368   -2.2705   -5.2799 H         1 UNK         0.0819 
     94 H94        26.7112   -2.4555   -5.0505 H         1 UNK         0.3041 
     95 H95        23.3689   -1.2220   -5.2534 H         1 UNK         0.0784 
     96 H96        23.1907   -3.2061   -6.7312 H         1 UNK         0.0793 
     97 H97        24.3183   -4.0975   -5.7214 H         1 UNK         0.0793 
     98 H98        22.7422   -3.6285   -5.0863 H         1 UNK         0.0793 
     99 H99        24.6170   -3.0385   -3.4408 H         1 UNK         0.3024 
    100 H100       26.2672   -0.6727   -1.3960 H         1 UNK         0.1171 
    101 H101       24.7241   -1.4070    0.3869 H         1 UNK         0.0786 
    102 H102       23.8957   -0.3035   -0.6970 H         1 UNK         0.0786 
    103 H103       23.5859   -2.0308   -0.8089 H         1 UNK         0.0786 
    104 H104       25.7595   -3.3286   -0.7899 H         1 UNK         0.2977 
    105 H105       25.4039    1.4302   -4.7056 H         1 UNK         0.3127 
    106 H106       24.3279    3.9315   -5.3635 H         1 UNK         0.0770 
    107 H107       23.0885    1.1477   -5.6978 H         1 UNK         0.0814 
    108 H108       22.1984    2.6630   -5.6483 H         1 UNK         0.0814 
    109 H109       23.0674    2.1136   -4.2234 H         1 UNK         0.0814 
    110 H110       25.0843    1.1836   -7.5478 H         1 UNK         0.2983 
    111 H111       24.1132    2.4852   -9.9396 H         1 UNK         0.0947 
    112 H112       25.2411    0.5643  -11.0659 H         1 UNK         0.0806 
    113 H113       24.2786    0.0056   -9.7084 H         1 UNK         0.0806 
    114 H114       26.0315    0.1194   -9.5593 H         1 UNK         0.0806 
    115 H115       26.8586    3.1213   -8.0549 H         1 UNK         0.3000 
    116 H116       28.8010    4.1246   -8.2501 H         1 UNK         0.0850 
    117 H117       29.1054    5.9440   -9.8765 H         1 UNK         0.0810 
    118 H118       27.4548    5.9774   -9.2801 H         1 UNK         0.0810 
    119 H119       27.8035    5.3328  -10.8843 H         1 UNK         0.0810 
    120 H120       28.5761    1.4486   -9.2055 H         1 UNK         0.3040 
    121 H121       30.4449    1.1418  -11.4684 H         1 UNK         0.0766 
    122 H122       28.5118   -0.4163  -11.2630 H         1 UNK         0.0812 
    123 H123       29.0589   -0.9246   -9.6669 H         1 UNK         0.0812 
    124 H124       30.0269   -1.2875  -11.0898 H         1 UNK         0.0812 
    125 H125       30.3208    0.8453   -7.9442 H         1 UNK         0.3205 
    126 H126       31.8008    0.5523   -6.3181 H         1 UNK         0.0754 
    127 H127       33.8802    1.8907   -6.4483 H         1 UNK         0.0769 
    128 H128       32.5534    2.7777   -7.1787 H         1 UNK         0.0769 
    129 H129       33.7505    1.9829   -8.2000 H         1 UNK         0.0769 
    130 H130       31.5451   -1.6902   -8.0206 H         1 UNK         0.2981 
    131 H131       32.2626   -3.7222   -8.3486 H         1 UNK         0.0541 
    132 H132       34.7032   -2.2158  -10.9493 H         1 UNK         0.3459 
    133 H133       33.5113   -1.3293  -10.0291 H         1 UNK         0.3459 
    134 H134       34.6525   -3.2881   -6.5000 H         1 UNK         0.0612 
    135 H135       33.9831   -4.8147   -7.0002 H         1 UNK         0.0612 
    136 H136       33.8934   -1.8821   -4.7228 H         1 UNK         0.0624 
    137 H137       34.2841   -3.2829   -3.7570 H         1 UNK         0.0624 
@<TRIPOS>BOND
     1    1    2 1    
     2    1   72 1    
     3    1   73 1    
     4    1   74 1    
     5    2    3 2    
     6    2    4 am   BACKBONE|DICT|INTERRES
     7    4    5 1    
     8    4   75 1    
     9    5    6 1    
    10    5   35 1    
    11    5   76 1    
    12    6    7 1    
    13    6   77 1    
    14    6   78 1    
    15    7    8 1    
    16    8    9 1    
    17    8   79 1    
    18    8   80 1    
    19    9   10 ar   
    20    9   14 ar   
    21   10   11 ar   
    22   10   81 1    
    23   11   12 ar   
    24   11   71 1    
    25   12   13 ar   
    26   12   82 1    
    27   13   14 ar   
    28   13   15 1    
    29   14   83 1    
    30   15   16 1    
    31   15   84 1    
    32   15   85 1    
    33   16   17 1    
    34   17   18 1    
    35   17   86 1    
    36   17   87 1    
    37   18   19 1    
    38   18   37 1    
    39   18   88 1    
    40   19   20 am   BACKBONE|DICT|INTERRES
    41   19   89 1    
    42   20   21 2    
    43   20   22 1    
    44   22   23 1    
    45   22   24 1    
    46   22   90 1    
    47   23   91 1    
    48   23   92 1    
    49   23   93 1    
    50   24   25 am   BACKBONE|DICT|INTERRES
    51   24   94 1    
    52   25   26 2    
    53   25   27 1    
    54   27   28 1    
    55   27   29 1    
    56   27   95 1    
    57   28   96 1    
    58   28   97 1    
    59   28   98 1    
    60   29   30 am   BACKBONE|DICT|INTERRES
    61   29   99 1    
    62   30   31 2    
    63   30   32 1    
    64   32   33 1    
    65   32   34 1    
    66   32  100 1    
    67   33  101 1    
    68   33  102 1    
    69   33  103 1    
    70   34   35 am   BACKBONE|DICT|INTERRES
    71   34  104 1    
    72   35   36 2    
    73   37   38 2    
    74   37   39 am   BACKBONE|DICT|INTERRES
    75   39   40 1    
    76   39  105 1    
    77   40   41 1    
    78   40   42 1    
    79   40  106 1    
    80   41  107 1    
    81   41  108 1    
    82   41  109 1    
    83   42   43 2    
    84   42   44 am   BACKBONE|DICT|INTERRES
    85   44   45 1    
    86   44  110 1    
    87   45   46 1    
    88   45   47 1    
    89   45  111 1    
    90   46  112 1    
    91   46  113 1    
    92   46  114 1    
    93   47   48 2    
    94   47   49 am   BACKBONE|DICT|INTERRES
    95   49   50 1    
    96   49  115 1    
    97   50   51 1    
    98   50   52 1    
    99   50  116 1    
   100   51  117 1    
   101   51  118 1    
   102   51  119 1    
   103   52   53 2    
   104   52   54 am   BACKBONE|DICT|INTERRES
   105   54   55 1    
   106   54  120 1    
   107   55   56 1    
   108   55   57 1    
   109   55  121 1    
   110   56  122 1    
   111   56  123 1    
   112   56  124 1    
   113   57   58 2    
   114   57   59 am   BACKBONE|DICT|INTERRES
   115   59   60 1    
   116   59  125 1    
   117   60   61 1    
   118   60   62 1    
   119   60  126 1    
   120   61  127 1    
   121   61  128 1    
   122   61  129 1    
   123   62   63 2    
   124   62   64 am   BACKBONE|DICT|INTERRES
   125   64   65 1    
   126   64  130 1    
   127   65   66 1    
   128   65   69 1    
   129   65  131 1    
   130   66   67 am   BACKBONE|DICT|INTERRES
   131   66   68 2    
   132   67  132 1    
   133   67  133 1    
   134   69   70 1    
   135   69  134 1    
   136   69  135 1    
   137   70   71 1    
   138   71  136 1    
   139   71  137 1    
@<TRIPOS>SUBSTRUCTURE
     1 UNK         1 GROUP             0       ****    0 ROOT    
