@<TRIPOS>MOLECULE
3R137
137   139    1
SMALL
USER_CHARGES


@<TRIPOS>ATOM
      1 CA         27.1444   -6.8214   -0.6443 C.3       0 UNK        -0.2020 
      2 C          26.7120   -5.5364    0.0460 C.2       0 UNK         0.4855 
      3 O          25.8687   -5.5764    0.9418 O.2       0 UNK        -0.5197 
      4 N          27.2871   -4.3978   -0.3644 N.am      1 UNK        -0.4892 
      5 CA         27.0206   -3.0610    0.1890 C.3       1 UNK         0.0835 
      6 C6         28.0068   -1.9956   -0.3560 C.3       12 UNK        -0.0855 
      7 S7         29.7613   -2.4327   -0.1152 S.3       12 UNK        -0.2931 
      8 C8         30.5474   -1.4305   -1.4261 C.3       12 UNK         0.0378 
      9 C9         30.7909   -2.1697   -2.7450 C.ar      12 UNK        -0.0802 
     10 C10        31.9303   -1.8510   -3.4919 C.ar      12 UNK        -0.0944 
     11 C11        32.2156   -2.5189   -4.6855 C.ar      12 UNK        -0.0787 
     12 C12        31.3441   -3.5119   -5.1432 C.ar      12 UNK        -0.0862 
     13 C13        30.1978   -3.8430   -4.4144 C.ar      12 UNK        -0.0733 
     14 C14        29.9195   -3.1567   -3.2273 C.ar      12 UNK        -0.0832 
     15 C15        29.3128   -5.0020   -4.8630 C.3       12 UNK         0.0240 
     16 S16        28.3957   -4.6646   -6.4002 S.3       12 UNK        -0.2522 
     17 C17        27.0823   -3.5382   -5.8209 C.3       12 UNK        -0.0967 
     18 CA         26.7726   -2.4019   -6.8291 C.3       5 UNK         0.0660 
     19 N          25.5568   -1.6735   -6.4543 N.am      5 UNK        -0.4015 
     20 C          24.9760   -0.7005   -7.1733 C.2       4 UNK         0.4946 
     21 O          25.3572   -0.3418   -8.2861 O.2       4 UNK        -0.5353 
     22 CA         23.7963    0.0347   -6.5149 C.3       4 UNK         0.0277 
     23 CB         22.4758   -0.6980   -6.7992 C.3       4 UNK        -0.1981 
     24 N          23.9572    0.2104   -5.0688 N.am      4 UNK        -0.4209 
     25 C          24.9616    0.8611   -4.4674 C.2       3 UNK         0.4942 
     26 O          25.8770    1.4140   -5.0772 O.2       3 UNK        -0.5208 
     27 CA         24.9884    0.8461   -2.9296 C.3       3 UNK         0.0250 
     28 CB         24.0620    1.9289   -2.3436 C.3       3 UNK        -0.1990 
     29 N          24.7344   -0.4775   -2.3361 N.am      3 UNK        -0.4232 
     30 C          23.6062   -1.2056   -2.3220 C.2       2 UNK         0.4993 
     31 O          22.5554   -0.8362   -2.8480 O.2       2 UNK        -0.5286 
     32 CA         23.6624   -2.6030   -1.6687 C.3       2 UNK         0.0209 
     33 CB         23.1585   -3.6823   -2.6444 C.3       2 UNK        -0.1931 
     34 N          24.9991   -2.9895   -1.2021 N.am      2 UNK        -0.4546 
     35 C          25.5746   -2.5819   -0.0616 C.2       1 UNK         0.5154 
     36 O          25.0293   -1.8302    0.7466 O.2       1 UNK        -0.5181 
     37 C          27.9677   -1.4447   -7.0069 C.2       5 UNK         0.5014 
     38 O          28.5855   -1.4328   -8.0726 O.2       5 UNK        -0.5248 
     39 N          28.2313   -0.6306   -5.9741 N.am      6 UNK        -0.4434 
     40 CA         29.3016    0.3648   -5.9575 C.3       6 UNK         0.0363 
     41 CB         29.4093    0.9922   -4.5597 C.3       6 UNK        -0.1936 
     42 C          29.1130    1.4524   -7.0225 C.2       6 UNK         0.5081 
     43 O          30.0902    1.8376   -7.6612 O.2       6 UNK        -0.5248 
     44 N          27.8652    1.9017   -7.2153 N.am      7 UNK        -0.4718 
     45 CA         27.4829    2.8641   -8.2490 C.3       7 UNK         0.0273 
     46 CB         26.0239    3.2985   -8.0384 C.3       7 UNK        -0.1935 
     47 C          27.6973    2.3249   -9.6735 C.2       7 UNK         0.5018 
     48 O          28.2730    3.0326  -10.5003 O.2       7 UNK        -0.5186 
     49 N          27.2545    1.0850   -9.9304 N.am      8 UNK        -0.4240 
     50 CA         27.3958    0.4062  -11.2215 C.3       8 UNK         0.0235 
     51 CB         26.5328   -0.8658  -11.2398 C.3       8 UNK        -0.2000 
     52 C          28.8546    0.0730  -11.5698 C.2       8 UNK         0.4941 
     53 O          29.2671    0.2928  -12.7093 O.2       8 UNK        -0.5273 
     54 N          29.6090   -0.4429  -10.5901 N.am      9 UNK        -0.4262 
     55 CA         31.0214   -0.8032  -10.7427 C.3       9 UNK         0.0264 
     56 CB         31.3826   -1.8490   -9.6773 C.3       9 UNK        -0.1955 
     57 C          31.9825    0.4006  -10.6846 C.2       9 UNK         0.5031 
     58 O          33.1481    0.2416  -11.0508 O.2       9 UNK        -0.5390 
     59 N          31.4906    1.5646  -10.2321 N.am      10 UNK        -0.4204 
     60 CA         32.2157    2.8211  -10.0027 C.3       10 UNK         0.0237 
     61 CB         32.7438    3.4131  -11.3272 C.3       10 UNK        -0.1985 
     62 C          33.3011    2.6772   -8.9171 C.2       10 UNK         0.4970 
     63 O          34.4297    3.1392   -9.0985 O.2       10 UNK        -0.4914 
     64 N          32.9328    2.0215   -7.8115 N.am      11 UNK        -0.4285 
     65 CA         33.7875    1.7871   -6.6404 C.3       11 UNK         0.1007 
     66 C          33.9549    3.0661   -5.7776 C.2       11 UNK         0.5703 
     67 N          35.0876    3.2130   -5.1036 N.am      11 UNK        -0.7361 
     68 O          33.0603    3.9049   -5.6819 O.2       11 UNK        -0.4986 
     69 C69        33.2681    0.6021   -5.7854 C.3       12 UNK        -0.0947 
     70 S70        33.2350   -0.9529   -6.7371 S.3       12 UNK        -0.2240 
     71 C71        33.4943   -2.2096   -5.4510 C.3       12 UNK         0.0194 
     72 H72        26.2870   -7.2998   -1.1170 H         1 UNK         0.0906 
     73 H73        27.8975   -6.6414   -1.4112 H         1 UNK         0.0906 
     74 H74        27.5626   -7.5156    0.0842 H         1 UNK         0.0906 
     75 H75        28.0229   -4.4434   -1.0526 H         1 UNK         0.3140 
     76 H76        27.1510   -3.1252    1.2718 H         1 UNK         0.1085 
     77 H77        27.8308   -1.8193   -1.4188 H         1 UNK         0.0836 
     78 H78        27.8386   -1.0368    0.1396 H         1 UNK         0.0836 
     79 H79        31.5010   -1.0797   -1.0282 H         1 UNK         0.0731 
     80 H80        29.9548   -0.5345   -1.6122 H         1 UNK         0.0731 
     81 H81        32.6118   -1.0911   -3.1345 H         1 UNK         0.1312 
     82 H82        31.5697   -4.0456   -6.0566 H         1 UNK         0.1406 
     83 H83        29.0394   -3.4207   -2.6636 H         1 UNK         0.1631 
     84 H84        28.6076   -5.2847   -4.0799 H         1 UNK         0.0717 
     85 H85        29.9437   -5.8770   -5.0260 H         1 UNK         0.0717 
     86 H86        26.1893   -4.1449   -5.6613 H         1 UNK         0.0934 
     87 H87        27.3456   -3.1307   -4.8436 H         1 UNK         0.0934 
     88 H88        26.5755   -2.8569   -7.8025 H         1 UNK         0.0739 
     89 H89        25.1540   -1.8956   -5.5572 H         1 UNK         0.3093 
     90 H90        23.7388    1.0294   -6.9607 H         1 UNK         0.0818 
     91 H91        21.6219   -0.1363   -6.4199 H         1 UNK         0.0819 
     92 H92        22.3251   -0.8287   -7.8719 H         1 UNK         0.0819 
     93 H93        22.4544   -1.6882   -6.3424 H         1 UNK         0.0819 
     94 H94        23.2501   -0.2011   -4.4628 H         1 UNK         0.3041 
     95 H95        26.0080    1.1049   -2.6386 H         1 UNK         0.0784 
     96 H96        24.3375    2.9168   -2.7153 H         1 UNK         0.0793 
     97 H97        23.0171    1.7654   -2.6087 H         1 UNK         0.0793 
     98 H98        24.1303    1.9616   -1.2562 H         1 UNK         0.0793 
     99 H99        25.5334   -0.8973   -1.8858 H         1 UNK         0.3024 
    100 H100       22.9872   -2.5756   -0.8101 H         1 UNK         0.1171 
    101 H101       23.1492   -4.6666   -2.1754 H         1 UNK         0.0786 
    102 H102       22.1378   -3.4754   -2.9694 H         1 UNK         0.0786 
    103 H103       23.7794   -3.7423   -3.5390 H         1 UNK         0.0786 
    104 H104       25.5193   -3.6247   -1.7900 H         1 UNK         0.2977 
    105 H105       27.6340   -0.6622   -5.1629 H         1 UNK         0.3127 
    106 H106       30.2343   -0.1588   -6.1770 H         1 UNK         0.0770 
    107 H107       28.4854    1.4906   -4.2647 H         1 UNK         0.0814 
    108 H108       30.2041    1.7384   -4.5255 H         1 UNK         0.0814 
    109 H109       29.6402    0.2390   -3.8098 H         1 UNK         0.0814 
    110 H110       27.1285    1.5661   -6.6007 H         1 UNK         0.2983 
    111 H111       28.1195    3.7437   -8.1304 H         1 UNK         0.0947 
    112 H112       25.7340    4.0564   -8.7672 H         1 UNK         0.0806 
    113 H113       25.8767    3.7271   -7.0468 H         1 UNK         0.0806 
    114 H114       25.3337    2.4619   -8.1459 H         1 UNK         0.0806 
    115 H115       26.7540    0.5778   -9.2032 H         1 UNK         0.3000 
    116 H116       27.0189    1.0805  -11.9936 H         1 UNK         0.0850 
    117 H117       25.4784   -0.6298  -11.0954 H         1 UNK         0.0810 
    118 H118       26.8279   -1.5642  -10.4553 H         1 UNK         0.0810 
    119 H119       26.6212   -1.3867  -12.1941 H         1 UNK         0.0810 
    120 H120       29.1827   -0.6430   -9.6860 H         1 UNK         0.3040 
    121 H121       31.1562   -1.2679  -11.7218 H         1 UNK         0.0766 
    122 H122       31.1904   -1.4726   -8.6730 H         1 UNK         0.0812 
    123 H123       32.4367   -2.1247   -9.7303 H         1 UNK         0.0812 
    124 H124       30.7997   -2.7613   -9.8040 H         1 UNK         0.0812 
    125 H125       30.5346    1.5614   -9.8989 H         1 UNK         0.3205 
    126 H126       31.4807    3.5214   -9.6027 H         1 UNK         0.0754 
    127 H127       33.5261    2.7941  -11.7673 H         1 UNK         0.0769 
    128 H128       31.9440    3.5154  -12.0607 H         1 UNK         0.0769 
    129 H129       33.1669    4.4057  -11.1685 H         1 UNK         0.0769 
    130 H130       31.9561    1.7548   -7.7188 H         1 UNK         0.2981 
    131 H131       34.7780    1.5161   -7.0121 H         1 UNK         0.0541 
    132 H132       35.8248    2.5280   -5.1654 H         1 UNK         0.3459 
    133 H133       35.2109    4.0301   -4.5264 H         1 UNK         0.3459 
    134 H134       32.2675    0.8050   -5.4048 H         1 UNK         0.0612 
    135 H135       33.9067    0.4604   -4.9119 H         1 UNK         0.0612 
    136 H136       33.8606   -3.1193   -5.9290 H         1 UNK         0.0624 
    137 H137       34.2850   -1.8900   -4.7707 H         1 UNK         0.0624 
@<TRIPOS>BOND
     1    1    2 1    
     2    1   72 1    
     3    1   73 1    
     4    1   74 1    
     5    2    3 2    
     6    2    4 am   BACKBONE|DICT|INTERRES
     7    4    5 1    
     8    4   75 1    
     9    5    6 1    
    10    5   35 1    
    11    5   76 1    
    12    6    7 1    
    13    6   77 1    
    14    6   78 1    
    15    7    8 1    
    16    8    9 1    
    17    8   79 1    
    18    8   80 1    
    19    9   10 ar   
    20    9   14 ar   
    21   10   11 ar   
    22   10   81 1    
    23   11   12 ar   
    24   11   71 1    
    25   12   13 ar   
    26   12   82 1    
    27   13   14 ar   
    28   13   15 1    
    29   14   83 1    
    30   15   16 1    
    31   15   84 1    
    32   15   85 1    
    33   16   17 1    
    34   17   18 1    
    35   17   86 1    
    36   17   87 1    
    37   18   19 1    
    38   18   37 1    
    39   18   88 1    
    40   19   20 am   BACKBONE|DICT|INTERRES
    41   19   89 1    
    42   20   21 2    
    43   20   22 1    
    44   22   23 1    
    45   22   24 1    
    46   22   90 1    
    47   23   91 1    
    48   23   92 1    
    49   23   93 1    
    50   24   25 am   BACKBONE|DICT|INTERRES
    51   24   94 1    
    52   25   26 2    
    53   25   27 1    
    54   27   28 1    
    55   27   29 1    
    56   27   95 1    
    57   28   96 1    
    58   28   97 1    
    59   28   98 1    
    60   29   30 am   BACKBONE|DICT|INTERRES
    61   29   99 1    
    62   30   31 2    
    63   30   32 1    
    64   32   33 1    
    65   32   34 1    
    66   32  100 1    
    67   33  101 1    
    68   33  102 1    
    69   33  103 1    
    70   34   35 am   BACKBONE|DICT|INTERRES
    71   34  104 1    
    72   35   36 2    
    73   37   38 2    
    74   37   39 am   BACKBONE|DICT|INTERRES
    75   39   40 1    
    76   39  105 1    
    77   40   41 1    
    78   40   42 1    
    79   40  106 1    
    80   41  107 1    
    81   41  108 1    
    82   41  109 1    
    83   42   43 2    
    84   42   44 am   BACKBONE|DICT|INTERRES
    85   44   45 1    
    86   44  110 1    
    87   45   46 1    
    88   45   47 1    
    89   45  111 1    
    90   46  112 1    
    91   46  113 1    
    92   46  114 1    
    93   47   48 2    
    94   47   49 am   BACKBONE|DICT|INTERRES
    95   49   50 1    
    96   49  115 1    
    97   50   51 1    
    98   50   52 1    
    99   50  116 1    
   100   51  117 1    
   101   51  118 1    
   102   51  119 1    
   103   52   53 2    
   104   52   54 am   BACKBONE|DICT|INTERRES
   105   54   55 1    
   106   54  120 1    
   107   55   56 1    
   108   55   57 1    
   109   55  121 1    
   110   56  122 1    
   111   56  123 1    
   112   56  124 1    
   113   57   58 2    
   114   57   59 am   BACKBONE|DICT|INTERRES
   115   59   60 1    
   116   59  125 1    
   117   60   61 1    
   118   60   62 1    
   119   60  126 1    
   120   61  127 1    
   121   61  128 1    
   122   61  129 1    
   123   62   63 2    
   124   62   64 am   BACKBONE|DICT|INTERRES
   125   64   65 1    
   126   64  130 1    
   127   65   66 1    
   128   65   69 1    
   129   65  131 1    
   130   66   67 am   BACKBONE|DICT|INTERRES
   131   66   68 2    
   132   67  132 1    
   133   67  133 1    
   134   69   70 1    
   135   69  134 1    
   136   69  135 1    
   137   70   71 1    
   138   71  136 1    
   139   71  137 1    
@<TRIPOS>SUBSTRUCTURE
     1 UNK         1 GROUP             0       ****    0 ROOT    
