@<TRIPOS>MOLECULE
3R137
137   139    1
SMALL
USER_CHARGES


@<TRIPOS>ATOM
      1 CA         29.3315   -5.0501   -8.3745 C.3       0 UNK        -0.2020 
      2 C          28.7444   -5.5136   -7.0510 C.2       0 UNK         0.4855 
      3 O          28.5477   -6.7124   -6.8538 O.2       0 UNK        -0.5197 
      4 N          28.4429   -4.5707   -6.1484 N.am      1 UNK        -0.4892 
      5 CA         27.8429   -4.8232   -4.8264 C.3       1 UNK         0.0835 
      6 C6         28.1009   -3.6505   -3.8436 C.3       12 UNK        -0.0855 
      7 S7         29.8808   -3.4717   -3.4713 S.3       12 UNK        -0.2931 
      8 C8         30.3671   -2.0651   -4.5323 C.3       12 UNK         0.0378 
      9 C9         30.6767   -0.7560   -3.8032 C.ar      12 UNK        -0.0802 
     10 C10        31.3903    0.2297   -4.4945 C.ar      12 UNK        -0.0944 
     11 C11        31.7339    1.4428   -3.8809 C.ar      12 UNK        -0.0787 
     12 C12        31.3311    1.6648   -2.5621 C.ar      12 UNK        -0.0862 
     13 C13        30.5878    0.7085   -1.8656 C.ar      12 UNK        -0.0733 
     14 C14        30.2701   -0.5021   -2.4866 C.ar      12 UNK        -0.0832 
     15 C15        30.1114    0.9964   -0.4475 C.3       12 UNK         0.0240 
     16 S16        28.3256    1.3663   -0.3798 S.3       12 UNK        -0.2522 
     17 C17        28.1697    2.7211   -1.5933 C.3       12 UNK        -0.0967 
     18 CA         27.5979    2.1991   -2.9343 C.3       5 UNK         0.0660 
     19 N          26.1898    1.8144   -2.8044 N.am      5 UNK        -0.4015 
     20 C          25.4203    1.3108   -3.7775 C.2       4 UNK         0.4946 
     21 O          25.8094    1.0958   -4.9300 O.2       4 UNK        -0.5353 
     22 CA         23.9543    1.0428   -3.3892 C.3       4 UNK         0.0277 
     23 CB         23.1392    2.3463   -3.4427 C.3       4 UNK        -0.1981 
     24 N          23.3114    0.0495   -4.2512 N.am      4 UNK        -0.4209 
     25 C          23.6665   -1.2384   -4.3356 C.2       3 UNK         0.4942 
     26 O          24.5395   -1.7577   -3.6341 O.2       3 UNK        -0.5208 
     27 CA         22.9292   -2.0885   -5.3823 C.3       3 UNK         0.0250 
     28 CB         22.6190   -1.3213   -6.6876 C.3       3 UNK        -0.1990 
     29 N          23.7454   -3.2614   -5.6789 N.am      3 UNK        -0.4232 
     30 C          23.3012   -4.4533   -6.0860 C.2       2 UNK         0.4993 
     31 O          22.1095   -4.7106   -6.2637 O.2       2 UNK        -0.5286 
     32 CA         24.3543   -5.5415   -6.3689 C.3       2 UNK         0.0209 
     33 CB         24.2794   -5.9964   -7.8374 C.3       2 UNK        -0.1931 
     34 N          25.7332   -5.1245   -6.0875 N.am      2 UNK        -0.4546 
     35 C          26.3399   -5.1937   -4.8938 C.2       1 UNK         0.5154 
     36 O          25.7597   -5.5516   -3.8682 O.2       1 UNK        -0.5181 
     37 C          27.8090    3.2247   -4.0638 C.2       5 UNK         0.5014 
     38 O          27.0123    4.1559   -4.2040 O.2       5 UNK        -0.5248 
     39 N          28.8603    3.0014   -4.8640 N.am      6 UNK        -0.4434 
     40 CA         29.2436    3.7044   -6.0968 C.3       6 UNK         0.0363 
     41 CB         29.4784    5.2090   -5.8617 C.3       6 UNK        -0.1936 
     42 C          28.2924    3.4593   -7.2813 C.2       6 UNK         0.5081 
     43 O          28.7768    3.2377   -8.3902 O.2       6 UNK        -0.5248 
     44 N          26.9746    3.4559   -7.0393 N.am      7 UNK        -0.4718 
     45 CA         25.9295    3.1739   -8.0299 C.3       7 UNK         0.0273 
     46 CB         24.5478    3.4140   -7.4011 C.3       7 UNK        -0.1935 
     47 C          26.0190    1.7543   -8.6169 C.2       7 UNK         0.5018 
     48 O          25.7994    1.5798   -9.8159 O.2       7 UNK        -0.5186 
     49 N          26.3722    0.7769   -7.7709 N.am      8 UNK        -0.4240 
     50 CA         26.6274   -0.6130   -8.1575 C.3       8 UNK         0.0235 
     51 CB         26.6531   -1.4764   -6.8886 C.3       8 UNK        -0.2000 
     52 C          27.9359   -0.8219   -8.9442 C.2       8 UNK         0.4941 
     53 O          28.0837   -1.8761   -9.5642 O.2       8 UNK        -0.5273 
     54 N          28.8582    0.1526   -8.8805 N.am      9 UNK        -0.4262 
     55 CA         30.2368    0.1167   -9.3874 C.3       9 UNK         0.0264 
     56 CB         30.2512   -0.0079  -10.9278 C.3       9 UNK        -0.1955 
     57 C          31.1011   -0.9524   -8.6821 C.2       9 UNK         0.5031 
     58 O          30.7102   -1.4603   -7.6297 O.2       9 UNK        -0.5390 
     59 N          32.2760   -1.2503   -9.2592 N.am      10 UNK        -0.4204 
     60 CA         33.2738   -2.2245   -8.7898 C.3       10 UNK         0.0237 
     61 CB         32.7276   -3.6632   -8.9034 C.3       10 UNK        -0.1985 
     62 C          33.8142   -1.9052   -7.3808 C.2       10 UNK         0.4970 
     63 O          33.8637   -2.7850   -6.5191 O.2       10 UNK        -0.4914 
     64 N          34.2086   -0.6422   -7.1778 N.am      11 UNK        -0.4285 
     65 CA         34.7474   -0.1221   -5.9098 C.3       11 UNK         0.1007 
     66 C          36.1475   -0.6750   -5.5092 C.2       11 UNK         0.5703 
     67 N          36.9000   -1.3016   -6.4065 N.am      11 UNK        -0.7361 
     68 O          36.5569   -0.5329   -4.3595 O.2       11 UNK        -0.4986 
     69 C69        34.7521    1.4285   -5.8838 C.3       12 UNK        -0.0947 
     70 S70        33.1312    2.1804   -6.2604 S.3       12 UNK        -0.2240 
     71 C71        32.5033    2.5626   -4.5884 C.3       12 UNK         0.0194 
     72 H72        29.5324   -3.9784   -8.3782 H         1 UNK         0.0906 
     73 H73        30.2648   -5.5746   -8.5762 H         1 UNK         0.0906 
     74 H74        28.6388   -5.2643   -9.1878 H         1 UNK         0.0906 
     75 H75        28.6676   -3.6080   -6.3543 H         1 UNK         0.3140 
     76 H76        28.3323   -5.7075   -4.4110 H         1 UNK         0.1085 
     77 H77        27.5975   -3.8311   -2.8916 H         1 UNK         0.0836 
     78 H78        27.6881   -2.7136   -4.2215 H         1 UNK         0.0836 
     79 H79        29.5962   -1.8736   -5.2772 H         1 UNK         0.0731 
     80 H80        31.2539   -2.3737   -5.0890 H         1 UNK         0.0731 
     81 H81        31.6779    0.0310   -5.5173 H         1 UNK         0.1312 
     82 H82        31.5814    2.6007   -2.0805 H         1 UNK         0.1406 
     83 H83        29.6933   -1.2333   -1.9379 H         1 UNK         0.1631 
     84 H84        30.6641    1.8325   -0.0162 H         1 UNK         0.0717 
     85 H85        30.3191    0.1344    0.1880 H         1 UNK         0.0717 
     86 H86        27.5243    3.4965   -1.1759 H         1 UNK         0.0934 
     87 H87        29.1431    3.1955   -1.7272 H         1 UNK         0.0934 
     88 H88        28.1338    1.2910   -3.2166 H         1 UNK         0.0739 
     89 H89        25.7798    1.9709   -1.8960 H         1 UNK         0.3093 
     90 H90        23.9357    0.6569   -2.3676 H         1 UNK         0.0818 
     91 H91        23.5677    3.1077   -2.7895 H         1 UNK         0.0819 
     92 H92        23.1102    2.7641   -4.4496 H         1 UNK         0.0819 
     93 H93        22.1115    2.1861   -3.1161 H         1 UNK         0.0819 
     94 H94        22.6084    0.3951   -4.8868 H         1 UNK         0.3041 
     95 H95        21.9917   -2.4141   -4.9267 H         1 UNK         0.0784 
     96 H96        21.8945   -0.5238   -6.5215 H         1 UNK         0.0793 
     97 H97        23.5145   -0.8708   -7.1174 H         1 UNK         0.0793 
     98 H98        22.1879   -1.9805   -7.4414 H         1 UNK         0.0793 
     99 H99        24.7243   -3.1646   -5.4475 H         1 UNK         0.3024 
    100 H100       24.1059   -6.3953   -5.7340 H         1 UNK         0.1171 
    101 H101       24.4972   -5.1782   -8.5251 H         1 UNK         0.0786 
    102 H102       24.9851   -6.8027   -8.0393 H         1 UNK         0.0786 
    103 H103       23.2851   -6.3723   -8.0828 H         1 UNK         0.0786 
    104 H104       26.2912   -4.8405   -6.8793 H         1 UNK         0.2977 
    105 H105       29.4327    2.1943   -4.6532 H         1 UNK         0.3127 
    106 H106       30.2005    3.2714   -6.3906 H         1 UNK         0.0770 
    107 H107       28.5556    5.7364   -5.6194 H         1 UNK         0.0814 
    108 H108       29.8908    5.6787   -6.7556 H         1 UNK         0.0814 
    109 H109       30.1857    5.3795   -5.0504 H         1 UNK         0.0814 
    110 H110       26.6754    3.6478   -6.0876 H         1 UNK         0.2983 
    111 H111       26.0593    3.8783   -8.8543 H         1 UNK         0.0947 
    112 H112       23.7539    3.2545   -8.1321 H         1 UNK         0.0806 
    113 H113       24.4496    4.4354   -7.0332 H         1 UNK         0.0806 
    114 H114       24.3627    2.7370   -6.5670 H         1 UNK         0.0806 
    115 H115       26.4312    0.9965   -6.7788 H         1 UNK         0.3000 
    116 H116       25.8022   -0.9479   -8.7896 H         1 UNK         0.0850 
    117 H117       27.4969   -1.2185   -6.2482 H         1 UNK         0.0810 
    118 H118       26.7308   -2.5329   -7.1417 H         1 UNK         0.0810 
    119 H119       25.7471   -1.3438   -6.3038 H         1 UNK         0.0810 
    120 H120       28.6152    0.9923   -8.3718 H         1 UNK         0.3040 
    121 H121       30.6714    1.0825   -9.1248 H         1 UNK         0.0766 
    122 H122       29.9739   -1.0102  -11.2569 H         1 UNK         0.0812 
    123 H123       29.5545    0.6951  -11.3849 H         1 UNK         0.0812 
    124 H124       31.2357    0.2131  -11.3402 H         1 UNK         0.0812 
    125 H125       32.5128   -0.7653  -10.1135 H         1 UNK         0.3205 
    126 H126       34.1239   -2.1442   -9.4689 H         1 UNK         0.0754 
    127 H127       33.5174   -4.3950   -8.7295 H         1 UNK         0.0769 
    128 H128       32.3131   -3.8591   -9.8923 H         1 UNK         0.0769 
    129 H129       31.9479   -3.8498   -8.1656 H         1 UNK         0.0769 
    130 H130       34.1292    0.0249   -7.9302 H         1 UNK         0.2981 
    131 H131       34.0722   -0.4572   -5.1210 H         1 UNK         0.0541 
    132 H132       37.8024   -1.6565   -6.1318 H         1 UNK         0.3459 
    133 H133       36.5764   -1.4223   -7.3523 H         1 UNK         0.3459 
    134 H134       35.4654    1.8103   -6.6165 H         1 UNK         0.0612 
    135 H135       35.0986    1.7939   -4.9158 H         1 UNK         0.0612 
    136 H136       33.3325    2.8860   -3.9580 H         1 UNK         0.0624 
    137 H137       31.8456    3.4275   -4.6706 H         1 UNK         0.0624 
@<TRIPOS>BOND
     1    1    2 1    
     2    1   72 1    
     3    1   73 1    
     4    1   74 1    
     5    2    3 2    
     6    2    4 am   BACKBONE|DICT|INTERRES
     7    4    5 1    
     8    4   75 1    
     9    5    6 1    
    10    5   35 1    
    11    5   76 1    
    12    6    7 1    
    13    6   77 1    
    14    6   78 1    
    15    7    8 1    
    16    8    9 1    
    17    8   79 1    
    18    8   80 1    
    19    9   10 ar   
    20    9   14 ar   
    21   10   11 ar   
    22   10   81 1    
    23   11   12 ar   
    24   11   71 1    
    25   12   13 ar   
    26   12   82 1    
    27   13   14 ar   
    28   13   15 1    
    29   14   83 1    
    30   15   16 1    
    31   15   84 1    
    32   15   85 1    
    33   16   17 1    
    34   17   18 1    
    35   17   86 1    
    36   17   87 1    
    37   18   19 1    
    38   18   37 1    
    39   18   88 1    
    40   19   20 am   BACKBONE|DICT|INTERRES
    41   19   89 1    
    42   20   21 2    
    43   20   22 1    
    44   22   23 1    
    45   22   24 1    
    46   22   90 1    
    47   23   91 1    
    48   23   92 1    
    49   23   93 1    
    50   24   25 am   BACKBONE|DICT|INTERRES
    51   24   94 1    
    52   25   26 2    
    53   25   27 1    
    54   27   28 1    
    55   27   29 1    
    56   27   95 1    
    57   28   96 1    
    58   28   97 1    
    59   28   98 1    
    60   29   30 am   BACKBONE|DICT|INTERRES
    61   29   99 1    
    62   30   31 2    
    63   30   32 1    
    64   32   33 1    
    65   32   34 1    
    66   32  100 1    
    67   33  101 1    
    68   33  102 1    
    69   33  103 1    
    70   34   35 am   BACKBONE|DICT|INTERRES
    71   34  104 1    
    72   35   36 2    
    73   37   38 2    
    74   37   39 am   BACKBONE|DICT|INTERRES
    75   39   40 1    
    76   39  105 1    
    77   40   41 1    
    78   40   42 1    
    79   40  106 1    
    80   41  107 1    
    81   41  108 1    
    82   41  109 1    
    83   42   43 2    
    84   42   44 am   BACKBONE|DICT|INTERRES
    85   44   45 1    
    86   44  110 1    
    87   45   46 1    
    88   45   47 1    
    89   45  111 1    
    90   46  112 1    
    91   46  113 1    
    92   46  114 1    
    93   47   48 2    
    94   47   49 am   BACKBONE|DICT|INTERRES
    95   49   50 1    
    96   49  115 1    
    97   50   51 1    
    98   50   52 1    
    99   50  116 1    
   100   51  117 1    
   101   51  118 1    
   102   51  119 1    
   103   52   53 2    
   104   52   54 am   BACKBONE|DICT|INTERRES
   105   54   55 1    
   106   54  120 1    
   107   55   56 1    
   108   55   57 1    
   109   55  121 1    
   110   56  122 1    
   111   56  123 1    
   112   56  124 1    
   113   57   58 2    
   114   57   59 am   BACKBONE|DICT|INTERRES
   115   59   60 1    
   116   59  125 1    
   117   60   61 1    
   118   60   62 1    
   119   60  126 1    
   120   61  127 1    
   121   61  128 1    
   122   61  129 1    
   123   62   63 2    
   124   62   64 am   BACKBONE|DICT|INTERRES
   125   64   65 1    
   126   64  130 1    
   127   65   66 1    
   128   65   69 1    
   129   65  131 1    
   130   66   67 am   BACKBONE|DICT|INTERRES
   131   66   68 2    
   132   67  132 1    
   133   67  133 1    
   134   69   70 1    
   135   69  134 1    
   136   69  135 1    
   137   70   71 1    
   138   71  136 1    
   139   71  137 1    
@<TRIPOS>SUBSTRUCTURE
     1 UNK         1 GROUP             0       ****    0 ROOT    
