@<TRIPOS>MOLECULE
3R137
137   139    1
SMALL
USER_CHARGES


@<TRIPOS>ATOM
      1 CA         27.0934   -2.9457    3.1141 C.3       0 UNK        -0.2020 
      2 C          26.7718   -2.6733    1.6527 C.2       0 UNK         0.4855 
      3 O          25.6492   -2.9304    1.2166 O.2       0 UNK        -0.5197 
      4 N          27.7435   -2.1425    0.8960 N.am      1 UNK        -0.4892 
      5 CA         27.6871   -1.7938   -0.5332 C.3       1 UNK         0.0835 
      6 C6         27.3024   -2.9945   -1.4400 C.3       12 UNK        -0.0855 
      7 S7         27.9349   -2.8354   -3.1429 S.3       12 UNK        -0.2931 
      8 C8         29.5500   -3.6640   -2.9612 C.3       12 UNK         0.0378 
      9 C9         30.2775   -3.7880   -4.2917 C.ar      12 UNK        -0.0802 
     10 C10        31.5197   -3.1761   -4.4950 C.ar      12 UNK        -0.0944 
     11 C11        32.1962   -3.3348   -5.7096 C.ar      12 UNK        -0.0787 
     12 C12        31.6019   -4.0752   -6.7371 C.ar      12 UNK        -0.0862 
     13 C13        30.3628   -4.6931   -6.5433 C.ar      12 UNK        -0.0733 
     14 C14        29.7192   -4.5623   -5.3104 C.ar      12 UNK        -0.0832 
     15 C15        29.7438   -5.5404   -7.6463 C.3       12 UNK         0.0240 
     16 S16        28.6644   -4.5694   -8.7462 S.3       12 UNK        -0.2522 
     17 C17        27.1807   -4.2986   -7.7060 C.3       12 UNK        -0.0967 
     18 CA         26.7041   -2.8277   -7.5031 C.3       5 UNK         0.0660 
     19 N          25.8589   -2.6573   -6.3213 N.am      5 UNK        -0.4015 
     20 C          24.6265   -3.1506   -6.1604 C.2       4 UNK         0.4946 
     21 O          24.0680   -3.8927   -6.9691 O.2       4 UNK        -0.5353 
     22 CA         23.8818   -2.7321   -4.8790 C.3       4 UNK         0.0277 
     23 CB         24.0628   -3.7939   -3.7822 C.3       4 UNK        -0.1981 
     24 N          24.2948   -1.4209   -4.3619 N.am      4 UNK        -0.4209 
     25 C          24.0388   -0.2482   -4.9629 C.2       3 UNK         0.4942 
     26 O          23.4463   -0.1574   -6.0387 O.2       3 UNK        -0.5208 
     27 CA         24.5581    1.0337   -4.2776 C.3       3 UNK         0.0250 
     28 CB         23.6391    2.2490   -4.5287 C.3       3 UNK        -0.1990 
     29 N          24.8494    0.8872   -2.8452 N.am      3 UNK        -0.4232 
     30 C          23.9925    0.6140   -1.8507 C.2       2 UNK         0.4993 
     31 O          22.7912    0.3967   -2.0170 O.2       2 UNK        -0.5286 
     32 CA         24.6027    0.5469   -0.4364 C.3       2 UNK         0.0209 
     33 CB         23.5369    0.3707    0.6618 C.3       2 UNK        -0.1931 
     34 N          25.5875   -0.5303   -0.3072 N.am      2 UNK        -0.4546 
     35 C          26.8247   -0.5459   -0.8179 C.2       1 UNK         0.5154 
     36 O          27.2915    0.3814   -1.4821 O.2       1 UNK        -0.5181 
     37 C          27.8047   -1.7478   -7.4987 C.2       5 UNK         0.5014 
     38 O          28.1354   -1.2425   -8.5719 O.2       5 UNK        -0.5248 
     39 N          28.2935   -1.3434   -6.3108 N.am      6 UNK        -0.4434 
     40 CA         29.3147   -0.3036   -6.1068 C.3       6 UNK         0.0363 
     41 CB         29.4564   -0.0015   -4.6051 C.3       6 UNK        -0.1936 
     42 C          29.0898    1.0180   -6.8617 C.2       6 UNK         0.5081 
     43 O          30.0627    1.6187   -7.3139 O.2       6 UNK        -0.5248 
     44 N          27.8260    1.4394   -7.0015 N.am      7 UNK        -0.4718 
     45 CA         27.4369    2.6477   -7.7343 C.3       7 UNK         0.0273 
     46 CB         25.9849    3.0086   -7.3831 C.3       7 UNK        -0.1935 
     47 C          27.6115    2.5285   -9.2598 C.2       7 UNK         0.5018 
     48 O          27.8600    3.5420   -9.9131 O.2       7 UNK        -0.5186 
     49 N          27.4862    1.3078   -9.7977 N.am      8 UNK        -0.4240 
     50 CA         27.6956    0.9986  -11.2135 C.3       8 UNK         0.0235 
     51 CB         26.7749   -0.1614  -11.6283 C.3       8 UNK        -0.2000 
     52 C          29.1650    0.6499  -11.4890 C.2       8 UNK         0.4941 
     53 O          29.7090    1.0758  -12.5080 O.2       8 UNK        -0.5273 
     54 N          29.7842   -0.1013  -10.5676 N.am      9 UNK        -0.4262 
     55 CA         31.1902   -0.5095  -10.6140 C.3       9 UNK         0.0264 
     56 CB         31.3919   -1.6797   -9.6381 C.3       9 UNK        -0.1955 
     57 C          32.1853    0.6314  -10.3188 C.2       9 UNK         0.5031 
     58 O          33.3703    0.4740  -10.6159 O.2       9 UNK        -0.5390 
     59 N          31.6931    1.7426   -9.7494 N.am      10 UNK        -0.4204 
     60 CA         32.4271    2.9347   -9.3070 C.3       10 UNK         0.0237 
     61 CB         33.1190    3.6466  -10.4898 C.3       10 UNK        -0.1985 
     62 C          33.3740    2.6317   -8.1299 C.2       10 UNK         0.4970 
     63 O          34.5100    3.1097   -8.1063 O.2       10 UNK        -0.4914 
     64 N          32.8732    1.8437   -7.1722 N.am      11 UNK        -0.4285 
     65 CA         33.5750    1.4502   -5.9407 C.3       11 UNK         0.1007 
     66 C          33.3561    2.4400   -4.7612 C.2       11 UNK         0.5703 
     67 N          32.4633    3.4180   -4.8670 N.am      11 UNK        -0.7361 
     68 O          34.0197    2.3262   -3.7334 O.2       11 UNK        -0.4986 
     69 C69        33.2280   -0.0023   -5.5199 C.3       12 UNK        -0.0947 
     70 S70        33.6085   -1.2124   -6.8270 S.3       12 UNK        -0.2240 
     71 C71        33.5989   -2.7717   -5.8953 C.3       12 UNK         0.0194 
     72 H72        26.4233   -2.3763    3.7576 H         1 UNK         0.0906 
     73 H73        26.9602   -4.0043    3.3355 H         1 UNK         0.0906 
     74 H74        28.1183   -2.6733    3.3656 H         1 UNK         0.0906 
     75 H75        28.6274   -1.9292    1.3394 H         1 UNK         0.3140 
     76 H76        28.7113   -1.5095   -0.7814 H         1 UNK         0.1085 
     77 H77        26.2203   -3.1321   -1.4744 H         1 UNK         0.0836 
     78 H78        27.6931   -3.9218   -1.0180 H         1 UNK         0.0836 
     79 H79        30.1554   -3.1132   -2.2398 H         1 UNK         0.0731 
     80 H80        29.4039   -4.6628   -2.5473 H         1 UNK         0.0731 
     81 H81        31.9747   -2.6010   -3.7002 H         1 UNK         0.1312 
     82 H82        32.1188   -4.1929   -7.6798 H         1 UNK         0.1406 
     83 H83        28.7803   -5.0654   -5.1297 H         1 UNK         0.1631 
     84 H84        29.1805   -6.3721   -7.2201 H         1 UNK         0.0717 
     85 H85        30.5341   -5.9917   -8.2480 H         1 UNK         0.0717 
     86 H86        26.3681   -4.8715   -8.1552 H         1 UNK         0.0934 
     87 H87        27.3354   -4.7685   -6.7377 H         1 UNK         0.0934 
     88 H88        26.0805   -2.5794   -8.3651 H         1 UNK         0.0739 
     89 H89        26.2036   -2.0311   -5.6109 H         1 UNK         0.3093 
     90 H90        22.8188   -2.6731   -5.1233 H         1 UNK         0.0818 
     91 H91        23.5204   -3.5282   -2.8745 H         1 UNK         0.0819 
     92 H92        23.6824   -4.7612   -4.1135 H         1 UNK         0.0819 
     93 H93        25.1118   -3.9335   -3.5213 H         1 UNK         0.0819 
     94 H94        24.7672   -1.4075   -3.4701 H         1 UNK         0.3041 
     95 H95        25.5170    1.2489   -4.7499 H         1 UNK         0.0784 
     96 H96        24.0466    3.1541   -4.0785 H         1 UNK         0.0793 
     97 H97        22.6399    2.0921   -4.1214 H         1 UNK         0.0793 
     98 H98        23.5235    2.4452   -5.5953 H         1 UNK         0.0793 
     99 H99        25.8280    0.9774   -2.5797 H         1 UNK         0.3024 
    100 H100       25.1069    1.5000   -0.2603 H         1 UNK         0.1171 
    101 H101       22.7943    1.1688    0.6192 H         1 UNK         0.0786 
    102 H102       23.9838    0.3988    1.6558 H         1 UNK         0.0786 
    103 H103       23.0060   -0.5768    0.5606 H         1 UNK         0.0786 
    104 H104       25.3081   -1.3496    0.2276 H         1 UNK         0.2977 
    105 H105       28.0640   -1.8790   -5.4850 H         1 UNK         0.3127 
    106 H106       30.2577   -0.7187   -6.4659 H         1 UNK         0.0770 
    107 H107       28.4965    0.2369   -4.1454 H         1 UNK         0.0814 
    108 H108       30.1159    0.8499   -4.4291 H         1 UNK         0.0814 
    109 H109       29.8863   -0.8445   -4.0679 H         1 UNK         0.0814 
    110 H110       27.0858    0.8788   -6.6100 H         1 UNK         0.2983 
    111 H111       28.0796    3.4663   -7.4017 H         1 UNK         0.0947 
    112 H112       25.6578    3.8928   -7.9322 H         1 UNK         0.0806 
    113 H113       25.8821    3.2366   -6.3224 H         1 UNK         0.0806 
    114 H114       25.2941    2.2000   -7.6262 H         1 UNK         0.0806 
    115 H115       27.3638    0.5141   -9.1785 H         1 UNK         0.3000 
    116 H116       27.4356    1.8691  -11.8203 H         1 UNK         0.0850 
    117 H117       26.8997   -0.3975  -12.6859 H         1 UNK         0.0810 
    118 H118       25.7260    0.0923  -11.4747 H         1 UNK         0.0810 
    119 H119       26.9851   -1.0713  -11.0646 H         1 UNK         0.0810 
    120 H120       29.2336   -0.4614   -9.7891 H         1 UNK         0.3040 
    121 H121       31.4048   -0.8687  -11.6226 H         1 UNK         0.0766 
    122 H122       32.4264   -2.0252   -9.6451 H         1 UNK         0.0812 
    123 H123       30.7644   -2.5306   -9.9034 H         1 UNK         0.0812 
    124 H124       31.1482   -1.3957   -8.6143 H         1 UNK         0.0812 
    125 H125       30.7185    1.7197   -9.4777 H         1 UNK         0.3205 
    126 H126       31.6729    3.6186   -8.9144 H         1 UNK         0.0754 
    127 H127       33.5367    4.6043  -10.1770 H         1 UNK         0.0769 
    128 H128       32.4148    3.8485  -11.2970 H         1 UNK         0.0769 
    129 H129       33.9384    3.0551  -10.8991 H         1 UNK         0.0769 
    130 H130       31.9001    1.5580   -7.2469 H         1 UNK         0.2981 
    131 H131       34.6479    1.4720   -6.1406 H         1 UNK         0.0541 
    132 H132       31.9104    3.5166   -5.7031 H         1 UNK         0.3459 
    133 H133       32.3375    4.0567   -4.0979 H         1 UNK         0.3459 
    134 H134       32.1753   -0.0915   -5.2592 H         1 UNK         0.0612 
    135 H135       33.7901   -0.2794   -4.6263 H         1 UNK         0.0612 
    136 H136       34.2053   -3.4979   -6.4385 H         1 UNK         0.0624 
    137 H137       34.0922   -2.6332   -4.9322 H         1 UNK         0.0624 
@<TRIPOS>BOND
     1    1    2 1    
     2    1   72 1    
     3    1   73 1    
     4    1   74 1    
     5    2    3 2    
     6    2    4 am   BACKBONE|DICT|INTERRES
     7    4    5 1    
     8    4   75 1    
     9    5    6 1    
    10    5   35 1    
    11    5   76 1    
    12    6    7 1    
    13    6   77 1    
    14    6   78 1    
    15    7    8 1    
    16    8    9 1    
    17    8   79 1    
    18    8   80 1    
    19    9   10 ar   
    20    9   14 ar   
    21   10   11 ar   
    22   10   81 1    
    23   11   12 ar   
    24   11   71 1    
    25   12   13 ar   
    26   12   82 1    
    27   13   14 ar   
    28   13   15 1    
    29   14   83 1    
    30   15   16 1    
    31   15   84 1    
    32   15   85 1    
    33   16   17 1    
    34   17   18 1    
    35   17   86 1    
    36   17   87 1    
    37   18   19 1    
    38   18   37 1    
    39   18   88 1    
    40   19   20 am   BACKBONE|DICT|INTERRES
    41   19   89 1    
    42   20   21 2    
    43   20   22 1    
    44   22   23 1    
    45   22   24 1    
    46   22   90 1    
    47   23   91 1    
    48   23   92 1    
    49   23   93 1    
    50   24   25 am   BACKBONE|DICT|INTERRES
    51   24   94 1    
    52   25   26 2    
    53   25   27 1    
    54   27   28 1    
    55   27   29 1    
    56   27   95 1    
    57   28   96 1    
    58   28   97 1    
    59   28   98 1    
    60   29   30 am   BACKBONE|DICT|INTERRES
    61   29   99 1    
    62   30   31 2    
    63   30   32 1    
    64   32   33 1    
    65   32   34 1    
    66   32  100 1    
    67   33  101 1    
    68   33  102 1    
    69   33  103 1    
    70   34   35 am   BACKBONE|DICT|INTERRES
    71   34  104 1    
    72   35   36 2    
    73   37   38 2    
    74   37   39 am   BACKBONE|DICT|INTERRES
    75   39   40 1    
    76   39  105 1    
    77   40   41 1    
    78   40   42 1    
    79   40  106 1    
    80   41  107 1    
    81   41  108 1    
    82   41  109 1    
    83   42   43 2    
    84   42   44 am   BACKBONE|DICT|INTERRES
    85   44   45 1    
    86   44  110 1    
    87   45   46 1    
    88   45   47 1    
    89   45  111 1    
    90   46  112 1    
    91   46  113 1    
    92   46  114 1    
    93   47   48 2    
    94   47   49 am   BACKBONE|DICT|INTERRES
    95   49   50 1    
    96   49  115 1    
    97   50   51 1    
    98   50   52 1    
    99   50  116 1    
   100   51  117 1    
   101   51  118 1    
   102   51  119 1    
   103   52   53 2    
   104   52   54 am   BACKBONE|DICT|INTERRES
   105   54   55 1    
   106   54  120 1    
   107   55   56 1    
   108   55   57 1    
   109   55  121 1    
   110   56  122 1    
   111   56  123 1    
   112   56  124 1    
   113   57   58 2    
   114   57   59 am   BACKBONE|DICT|INTERRES
   115   59   60 1    
   116   59  125 1    
   117   60   61 1    
   118   60   62 1    
   119   60  126 1    
   120   61  127 1    
   121   61  128 1    
   122   61  129 1    
   123   62   63 2    
   124   62   64 am   BACKBONE|DICT|INTERRES
   125   64   65 1    
   126   64  130 1    
   127   65   66 1    
   128   65   69 1    
   129   65  131 1    
   130   66   67 am   BACKBONE|DICT|INTERRES
   131   66   68 2    
   132   67  132 1    
   133   67  133 1    
   134   69   70 1    
   135   69  134 1    
   136   69  135 1    
   137   70   71 1    
   138   71  136 1    
   139   71  137 1    
@<TRIPOS>SUBSTRUCTURE
     1 UNK         1 GROUP             0       ****    0 ROOT    
