@<TRIPOS>MOLECULE
3R137
137   139    1
SMALL
USER_CHARGES


@<TRIPOS>ATOM
      1 CA         30.9636    0.4020   -1.9736 C.3       0 UNK        -0.2020 
      2 C          29.9926   -0.7686   -1.9550 C.2       0 UNK         0.4855 
      3 O          29.4546   -1.1355   -2.9985 O.2       0 UNK        -0.5197 
      4 N          29.7538   -1.3514   -0.7734 N.am      1 UNK        -0.4892 
      5 CA         28.8809   -2.5124   -0.5659 C.3       1 UNK         0.0835 
      6 C6         29.2829   -3.3346    0.6907 C.3       12 UNK        -0.0855 
      7 S7         31.0360   -3.8412    0.7339 S.3       12 UNK        -0.2931 
      8 C8         30.9852   -5.4747   -0.0722 C.3       12 UNK         0.0378 
      9 C9         30.8959   -5.3466   -1.5854 C.ar      12 UNK        -0.0802 
     10 C10        31.9796   -4.8314   -2.3009 C.ar      12 UNK        -0.0944 
     11 C11        31.9132   -4.6760   -3.6881 C.ar      12 UNK        -0.0787 
     12 C12        30.7548   -5.0687   -4.3649 C.ar      12 UNK        -0.0862 
     13 C13        29.6647   -5.5973   -3.6618 C.ar      12 UNK        -0.0733 
     14 C14        29.7424   -5.7371   -2.2721 C.ar      12 UNK        -0.0832 
     15 C15        28.4010   -6.0205   -4.4010 C.3       12 UNK         0.0240 
     16 S16        27.0268   -4.8530   -4.1350 S.3       12 UNK        -0.2522 
     17 C17        27.6672   -3.3561   -4.9506 C.3       12 UNK        -0.0967 
     18 CA         26.9074   -2.9955   -6.2478 C.3       5 UNK         0.0660 
     19 N          25.5133   -2.6199   -6.0057 N.am      5 UNK        -0.4015 
     20 C          24.5536   -2.6173   -6.9417 C.2       4 UNK         0.4946 
     21 O          24.7117   -3.0383   -8.0881 O.2       4 UNK        -0.5353 
     22 CA         23.1820   -2.0426   -6.5410 C.3       4 UNK         0.0277 
     23 CB         22.2576   -3.1635   -6.0384 C.3       4 UNK        -0.1981 
     24 N          23.2654   -0.9915   -5.5233 N.am      4 UNK        -0.4209 
     25 C          23.8019    0.2227   -5.7172 C.2       3 UNK         0.4942 
     26 O          24.2421    0.6151   -6.7973 O.2       3 UNK        -0.5208 
     27 CA         23.9215    1.1283   -4.4769 C.3       3 UNK         0.0250 
     28 CB         22.6283    1.9315   -4.2660 C.3       3 UNK        -0.1990 
     29 N          24.2524    0.3891   -3.2510 N.am      3 UNK        -0.4232 
     30 C          25.3646   -0.3412   -3.0919 C.2       2 UNK         0.4993 
     31 O          26.2394   -0.4411   -3.9544 O.2       2 UNK        -0.5286 
     32 CA         25.4790   -1.1598   -1.8038 C.3       2 UNK         0.0209 
     33 CB         24.5435   -2.3855   -1.8676 C.3       2 UNK        -0.1931 
     34 N          26.8649   -1.5954   -1.6366 N.am      2 UNK        -0.4546 
     35 C          27.3974   -2.0822   -0.5119 C.2       1 UNK         0.5154 
     36 O          26.7655   -2.1760    0.5431 O.2       1 UNK        -0.5181 
     37 C          27.6423   -1.8624   -6.9827 C.2       5 UNK         0.5014 
     38 O          28.3429   -2.1334   -7.9581 O.2       5 UNK        -0.5248 
     39 N          27.4774   -0.6256   -6.4894 N.am      6 UNK        -0.4434 
     40 CA         28.1173    0.5771   -7.0171 C.3       6 UNK         0.0363 
     41 CB         27.8729    1.7580   -6.0662 C.3       6 UNK        -0.1936 
     42 C          27.6763    0.9237   -8.4452 C.2       6 UNK         0.5081 
     43 O          28.5304    1.2733   -9.2614 O.2       6 UNK        -0.5248 
     44 N          26.3665    0.8221   -8.7209 N.am      7 UNK        -0.4718 
     45 CA         25.6649    1.0044  -10.0031 C.3       7 UNK         0.0273 
     46 CB         26.0977   -0.0699  -11.0190 C.3       7 UNK        -0.1935 
     47 C          25.7610    2.4153  -10.6176 C.2       7 UNK         0.5018 
     48 O          24.7394    2.9756  -11.0168 O.2       7 UNK        -0.5186 
     49 N          26.9773    2.9588  -10.6735 N.am      8 UNK        -0.4240 
     50 CA         27.3245    4.3028  -11.1122 C.3       8 UNK         0.0235 
     51 CB         27.4970    4.3537  -12.6415 C.3       8 UNK        -0.2000 
     52 C          28.5880    4.7580  -10.3729 C.2       8 UNK         0.4941 
     53 O          28.5467    5.7886   -9.6999 O.2       8 UNK        -0.5273 
     54 N          29.6775    3.9817  -10.4882 N.am      9 UNK        -0.4262 
     55 CA         30.9744    4.2839   -9.8722 C.3       9 UNK         0.0264 
     56 CB         31.6956    5.3904  -10.6747 C.3       9 UNK        -0.1955 
     57 C          31.8601    3.0366   -9.6769 C.2       9 UNK         0.5031 
     58 O          33.0850    3.1752   -9.6372 O.2       9 UNK        -0.5390 
     59 N          31.2640    1.8408   -9.5601 N.am      10 UNK        -0.4204 
     60 CA         31.9886    0.6012   -9.2598 C.3       10 UNK         0.0237 
     61 CB         31.1695   -0.6041   -9.7502 C.3       10 UNK        -0.1985 
     62 C          32.2840    0.4853   -7.7540 C.2       10 UNK         0.4970 
     63 O          31.6187    1.1328   -6.9426 O.2       10 UNK        -0.4914 
     64 N          33.2755   -0.3481   -7.4133 N.am      11 UNK        -0.4285 
     65 CA         33.7533   -0.5925   -6.0402 C.3       11 UNK         0.1007 
     66 C          34.3676    0.6626   -5.3356 C.2       11 UNK         0.5703 
     67 N          34.8470    1.6566   -6.0753 N.am      11 UNK        -0.7361 
     68 O          34.4383    0.7385   -4.1115 O.2       11 UNK        -0.4986 
     69 C69        32.7063   -1.3639   -5.1777 C.3       12 UNK        -0.0947 
     70 S70        33.5063   -2.4108   -3.9112 S.3       12 UNK        -0.2240 
     71 C71        33.1081   -4.1085   -4.4436 C.3       12 UNK         0.0194 
     72 H72        31.9272    0.0834   -2.3706 H         1 UNK         0.0906 
     73 H73        30.5802    1.1996   -2.6097 H         1 UNK         0.0906 
     74 H74        31.1238    0.8118   -0.9767 H         1 UNK         0.0906 
     75 H75        30.2175   -1.0072    0.0553 H         1 UNK         0.3140 
     76 H76        28.9804   -3.1701   -1.4318 H         1 UNK         0.1085 
     77 H77        29.1016   -2.7524    1.5964 H         1 UNK         0.0836 
     78 H78        28.6553   -4.2235    0.7790 H         1 UNK         0.0836 
     79 H79        30.1578   -6.0632    0.3274 H         1 UNK         0.0731 
     80 H80        31.8958   -6.0189    0.1823 H         1 UNK         0.0731 
     81 H81        32.8735   -4.5299   -1.7715 H         1 UNK         0.1312 
     82 H82        30.7005   -4.9601   -5.4395 H         1 UNK         0.1406 
     83 H83        28.8981   -6.1391   -1.7282 H         1 UNK         0.1631 
     84 H84        28.0951   -7.0091   -4.0559 H         1 UNK         0.0717 
     85 H85        28.5891   -6.1161   -5.4716 H         1 UNK         0.0717 
     86 H86        27.6201   -2.5416   -4.2313 H         1 UNK         0.0934 
     87 H87        28.7283   -3.4819   -5.1637 H         1 UNK         0.0934 
     88 H88        26.9201   -3.8716   -6.9004 H         1 UNK         0.0739 
     89 H89        25.3133   -2.2231   -5.0997 H         1 UNK         0.3093 
     90 H90        22.7360   -1.6061   -7.4375 H         1 UNK         0.0818 
     91 H91        21.2559   -2.7884   -5.8277 H         1 UNK         0.0819 
     92 H92        22.1554   -3.9493   -6.7884 H         1 UNK         0.0819 
     93 H93        22.6416   -3.6293   -5.1298 H         1 UNK         0.0819 
     94 H94        22.9144   -1.2173   -4.6043 H         1 UNK         0.3041 
     95 H95        24.7331    1.8342   -4.6645 H         1 UNK         0.0784 
     96 H96        22.3749    2.5031   -5.1602 H         1 UNK         0.0793 
     97 H97        21.7795    1.2841   -4.0418 H         1 UNK         0.0793 
     98 H98        22.7330    2.6445   -3.4480 H         1 UNK         0.0793 
     99 H99        23.5737    0.4220   -2.5032 H         1 UNK         0.3024 
    100 H100       25.2033   -0.5210   -0.9616 H         1 UNK         0.1171 
    101 H101       23.5042   -2.0879   -2.0112 H         1 UNK         0.0786 
    102 H102       24.8106   -3.0530   -2.6880 H         1 UNK         0.0786 
    103 H103       24.5797   -2.9656   -0.9456 H         1 UNK         0.0786 
    104 H104       27.4677   -1.4445   -2.4429 H         1 UNK         0.2977 
    105 H105       26.9354   -0.5117   -5.6339 H         1 UNK         0.3127 
    106 H106       29.1884    0.3790   -7.0445 H         1 UNK         0.0770 
    107 H107       26.8124    1.9973   -5.9840 H         1 UNK         0.0814 
    108 H108       28.3869    2.6533   -6.4187 H         1 UNK         0.0814 
    109 H109       28.2469    1.5414   -5.0650 H         1 UNK         0.0814 
    110 H110       25.7457    0.6040   -7.9433 H         1 UNK         0.2983 
    111 H111       24.6096    0.8369   -9.7802 H         1 UNK         0.0947 
    112 H112       25.5243    0.0130  -11.9431 H         1 UNK         0.0806 
    113 H113       25.9343   -1.0729  -10.6238 H         1 UNK         0.0806 
    114 H114       27.1526    0.0169  -11.2816 H         1 UNK         0.0806 
    115 H115       27.7235    2.4120  -10.2422 H         1 UNK         0.3000 
    116 H116       26.5171    4.9828  -10.8311 H         1 UNK         0.0850 
    117 H117       27.8033    5.3490  -12.9662 H         1 UNK         0.0810 
    118 H118       26.5616    4.1213  -13.1508 H         1 UNK         0.0810 
    119 H119       28.2500    3.6472  -12.9919 H         1 UNK         0.0810 
    120 H120       29.6397    3.1566  -11.0711 H         1 UNK         0.3040 
    121 H121       30.7903    4.6636   -8.8648 H         1 UNK         0.0766 
    122 H122       32.6376    5.6735  -10.2033 H         1 UNK         0.0812 
    123 H123       31.0944    6.2969  -10.7424 H         1 UNK         0.0812 
    124 H124       31.9222    5.0626  -11.6897 H         1 UNK         0.0812 
    125 H125       30.2488    1.7809   -9.4949 H         1 UNK         0.3205 
    126 H126       32.9376    0.6078   -9.8005 H         1 UNK         0.0754 
    127 H127       31.7332   -1.5317   -9.6450 H         1 UNK         0.0769 
    128 H128       30.9037   -0.5042  -10.8027 H         1 UNK         0.0769 
    129 H129       30.2472   -0.7241   -9.1830 H         1 UNK         0.0769 
    130 H130       33.7783   -0.8334   -8.1423 H         1 UNK         0.2981 
    131 H131       34.6047   -1.2590   -6.1820 H         1 UNK         0.0541 
    132 H132       35.2477    2.4599   -5.6175 H         1 UNK         0.3459 
    133 H133       34.7962    1.6218   -7.0808 H         1 UNK         0.3459 
    134 H134       32.0849   -2.0001   -5.8094 H         1 UNK         0.0612 
    135 H135       32.0143   -0.6738   -4.6929 H         1 UNK         0.0612 
    136 H136       33.9737   -4.7418   -4.2454 H         1 UNK         0.0624 
    137 H137       32.9514   -4.1399   -5.5227 H         1 UNK         0.0624 
@<TRIPOS>BOND
     1    1    2 1    
     2    1   72 1    
     3    1   73 1    
     4    1   74 1    
     5    2    3 2    
     6    2    4 am   BACKBONE|DICT|INTERRES
     7    4    5 1    
     8    4   75 1    
     9    5    6 1    
    10    5   35 1    
    11    5   76 1    
    12    6    7 1    
    13    6   77 1    
    14    6   78 1    
    15    7    8 1    
    16    8    9 1    
    17    8   79 1    
    18    8   80 1    
    19    9   10 ar   
    20    9   14 ar   
    21   10   11 ar   
    22   10   81 1    
    23   11   12 ar   
    24   11   71 1    
    25   12   13 ar   
    26   12   82 1    
    27   13   14 ar   
    28   13   15 1    
    29   14   83 1    
    30   15   16 1    
    31   15   84 1    
    32   15   85 1    
    33   16   17 1    
    34   17   18 1    
    35   17   86 1    
    36   17   87 1    
    37   18   19 1    
    38   18   37 1    
    39   18   88 1    
    40   19   20 am   BACKBONE|DICT|INTERRES
    41   19   89 1    
    42   20   21 2    
    43   20   22 1    
    44   22   23 1    
    45   22   24 1    
    46   22   90 1    
    47   23   91 1    
    48   23   92 1    
    49   23   93 1    
    50   24   25 am   BACKBONE|DICT|INTERRES
    51   24   94 1    
    52   25   26 2    
    53   25   27 1    
    54   27   28 1    
    55   27   29 1    
    56   27   95 1    
    57   28   96 1    
    58   28   97 1    
    59   28   98 1    
    60   29   30 am   BACKBONE|DICT|INTERRES
    61   29   99 1    
    62   30   31 2    
    63   30   32 1    
    64   32   33 1    
    65   32   34 1    
    66   32  100 1    
    67   33  101 1    
    68   33  102 1    
    69   33  103 1    
    70   34   35 am   BACKBONE|DICT|INTERRES
    71   34  104 1    
    72   35   36 2    
    73   37   38 2    
    74   37   39 am   BACKBONE|DICT|INTERRES
    75   39   40 1    
    76   39  105 1    
    77   40   41 1    
    78   40   42 1    
    79   40  106 1    
    80   41  107 1    
    81   41  108 1    
    82   41  109 1    
    83   42   43 2    
    84   42   44 am   BACKBONE|DICT|INTERRES
    85   44   45 1    
    86   44  110 1    
    87   45   46 1    
    88   45   47 1    
    89   45  111 1    
    90   46  112 1    
    91   46  113 1    
    92   46  114 1    
    93   47   48 2    
    94   47   49 am   BACKBONE|DICT|INTERRES
    95   49   50 1    
    96   49  115 1    
    97   50   51 1    
    98   50   52 1    
    99   50  116 1    
   100   51  117 1    
   101   51  118 1    
   102   51  119 1    
   103   52   53 2    
   104   52   54 am   BACKBONE|DICT|INTERRES
   105   54   55 1    
   106   54  120 1    
   107   55   56 1    
   108   55   57 1    
   109   55  121 1    
   110   56  122 1    
   111   56  123 1    
   112   56  124 1    
   113   57   58 2    
   114   57   59 am   BACKBONE|DICT|INTERRES
   115   59   60 1    
   116   59  125 1    
   117   60   61 1    
   118   60   62 1    
   119   60  126 1    
   120   61  127 1    
   121   61  128 1    
   122   61  129 1    
   123   62   63 2    
   124   62   64 am   BACKBONE|DICT|INTERRES
   125   64   65 1    
   126   64  130 1    
   127   65   66 1    
   128   65   69 1    
   129   65  131 1    
   130   66   67 am   BACKBONE|DICT|INTERRES
   131   66   68 2    
   132   67  132 1    
   133   67  133 1    
   134   69   70 1    
   135   69  134 1    
   136   69  135 1    
   137   70   71 1    
   138   71  136 1    
   139   71  137 1    
@<TRIPOS>SUBSTRUCTURE
     1 UNK         1 GROUP             0       ****    0 ROOT    
