@<TRIPOS>MOLECULE
3R137
137   139    1
SMALL
USER_CHARGES


@<TRIPOS>ATOM
      1 CA         28.1898    1.7093    2.5244 C.3       0 UNK        -0.2020 
      2 C          28.2438    1.1423    1.1135 C.2       0 UNK         0.4855 
      3 O          27.5769    1.6631    0.2188 O.2       0 UNK        -0.5197 
      4 N          29.0376    0.0841    0.9053 N.am      1 UNK        -0.4892 
      5 CA         29.1566   -0.6312   -0.3696 C.3       1 UNK         0.0835 
      6 C6         30.4388   -1.5000   -0.3998 C.3       12 UNK        -0.0855 
      7 S7         31.0779   -1.7226   -2.0903 S.3       12 UNK        -0.2931 
      8 C8         30.7327   -3.4845   -2.3690 C.3       12 UNK         0.0378 
      9 C9         31.1883   -3.9128   -3.7550 C.ar      12 UNK        -0.0802 
     10 C10        32.5314   -4.2123   -3.9875 C.ar      12 UNK        -0.0944 
     11 C11        32.9636   -4.6141   -5.2561 C.ar      12 UNK        -0.0787 
     12 C12        32.0292   -4.7206   -6.2914 C.ar      12 UNK        -0.0862 
     13 C13        30.6747   -4.4439   -6.0747 C.ar      12 UNK        -0.0733 
     14 C14        30.2666   -4.0329   -4.7975 C.ar      12 UNK        -0.0832 
     15 C15        29.7019   -4.6484   -7.2422 C.3       12 UNK         0.0240 
     16 S16        27.9480   -4.2501   -6.9114 S.3       12 UNK        -0.2522 
     17 C17        28.0108   -2.4308   -6.8788 C.3       12 UNK        -0.0967 
     18 CA         26.8584   -1.7929   -7.6886 C.3       5 UNK         0.0660 
     19 N          25.5468   -2.0496   -7.1000 N.am      5 UNK        -0.4015 
     20 C          24.3979   -2.0729   -7.7880 C.2       4 UNK         0.4946 
     21 O          24.3260   -2.0003   -9.0153 O.2       4 UNK        -0.5353 
     22 CA         23.0998   -2.1775   -6.9674 C.3       4 UNK         0.0277 
     23 CB         22.6782   -3.6479   -6.8130 C.3       4 UNK        -0.1981 
     24 N          23.1973   -1.5579   -5.6423 N.am      4 UNK        -0.4209 
     25 C          23.3983   -0.2503   -5.4218 C.2       3 UNK         0.4942 
     26 O          23.4945    0.5924   -6.3140 O.2       3 UNK        -0.5208 
     27 CA         23.5666    0.1804   -3.9555 C.3       3 UNK         0.0250 
     28 CB         22.1974    0.4680   -3.3190 C.3       3 UNK        -0.1990 
     29 N          24.3018   -0.7850   -3.1275 N.am      3 UNK        -0.4232 
     30 C          25.5623   -1.1825   -3.3496 C.2       2 UNK         0.4993 
     31 O          26.2318   -0.8434   -4.3285 O.2       2 UNK        -0.5286 
     32 CA         26.1910   -2.1244   -2.3230 C.3       2 UNK         0.0209 
     33 CB         26.4481   -3.5120   -2.9351 C.3       2 UNK        -0.1931 
     34 N          27.4528   -1.5216   -1.9026 N.am      2 UNK        -0.4546 
     35 C          27.8857   -1.4662   -0.6385 C.2       1 UNK         0.5154 
     36 O          27.3286   -2.0439    0.2997 O.2       1 UNK        -0.5181 
     37 C          27.0635   -0.2775   -7.8222 C.2       5 UNK         0.5014 
     38 O          27.3037    0.2007   -8.9296 O.2       5 UNK        -0.5248 
     39 N          26.9538    0.4483   -6.6978 N.am      6 UNK        -0.4434 
     40 CA         27.2852    1.8705   -6.5470 C.3       6 UNK         0.0363 
     41 CB         27.1016    2.2785   -5.0774 C.3       6 UNK        -0.1936 
     42 C          26.5249    2.8326   -7.4765 C.2       6 UNK         0.5081 
     43 O          27.0261    3.9260   -7.7387 O.2       6 UNK        -0.5248 
     44 N          25.3630    2.4075   -7.9920 N.am      7 UNK        -0.4718 
     45 CA         24.6244    3.0774   -9.0671 C.3       7 UNK         0.0273 
     46 CB         23.2960    2.3385   -9.2951 C.3       7 UNK        -0.1935 
     47 C          25.4109    3.1896  -10.3912 C.2       7 UNK         0.5018 
     48 O          25.1377    4.1058  -11.1682 O.2       7 UNK        -0.5186 
     49 N          26.3651    2.2765  -10.6192 N.am      8 UNK        -0.4240 
     50 CA         27.3070    2.2920  -11.7357 C.3       8 UNK         0.0235 
     51 CB         27.2359    0.9516  -12.4900 C.3       8 UNK        -0.2000 
     52 C          28.7205    2.5728  -11.2055 C.2       8 UNK         0.4941 
     53 O          29.2840    3.6214  -11.5208 O.2       8 UNK        -0.5273 
     54 N          29.2538    1.6462  -10.3993 N.am      9 UNK        -0.4262 
     55 CA         30.5619    1.6867   -9.7480 C.3       9 UNK         0.0264 
     56 CB         31.7083    1.6719  -10.7802 C.3       9 UNK        -0.1955 
     57 C          30.6739    0.4657   -8.8265 C.2       9 UNK         0.5031 
     58 O          30.2462   -0.6248   -9.2120 O.2       9 UNK        -0.5390 
     59 N          31.2714    0.6585   -7.6479 N.am      10 UNK        -0.4204 
     60 CA         31.5628   -0.3834   -6.6645 C.3       10 UNK         0.0237 
     61 CB         30.5827   -0.2527   -5.4876 C.3       10 UNK        -0.1985 
     62 C          33.0083   -0.1883   -6.1948 C.2       10 UNK         0.4970 
     63 O          33.4820    0.9518   -6.1806 O.2       10 UNK        -0.4914 
     64 N          33.6851   -1.2833   -5.8264 N.am      11 UNK        -0.4285 
     65 CA         35.0976   -1.2555   -5.4107 C.3       11 UNK         0.1007 
     66 C          35.3492   -0.7825   -3.9478 C.2       11 UNK         0.5703 
     67 N          34.3305   -0.6453   -3.1073 N.am      11 UNK        -0.7361 
     68 O          36.4903   -0.5161   -3.5774 O.2       11 UNK        -0.4986 
     69 C69        35.8414   -2.5662   -5.7902 C.3       12 UNK        -0.0947 
     70 S70        35.6339   -3.9717   -4.6432 S.3       12 UNK        -0.2240 
     71 C71        34.4145   -5.0185   -5.5038 C.3       12 UNK         0.0194 
     72 H72        28.8375    1.1629    3.2096 H         1 UNK         0.0906 
     73 H73        28.5033    2.7529    2.5216 H         1 UNK         0.0906 
     74 H74        27.1714    1.6604    2.9091 H         1 UNK         0.0906 
     75 H75        29.5313   -0.3253    1.6859 H         1 UNK         0.3140 
     76 H76        29.2349    0.1308   -1.1493 H         1 UNK         0.1085 
     77 H77        30.2907   -2.4628    0.0940 H         1 UNK         0.0836 
     78 H78        31.2368   -1.0067    0.1580 H         1 UNK         0.0836 
     79 H79        31.2456   -4.0806   -1.6124 H         1 UNK         0.0731 
     80 H80        29.6653   -3.6715   -2.2410 H         1 UNK         0.0731 
     81 H81        33.2365   -4.1415   -3.1706 H         1 UNK         0.1312 
     82 H82        32.3522   -5.0550   -7.2684 H         1 UNK         0.1406 
     83 H83        29.2297   -3.8184   -4.5929 H         1 UNK         0.1631 
     84 H84        29.7493   -5.6959   -7.5426 H         1 UNK         0.0717 
     85 H85        30.0412   -4.0696   -8.1029 H         1 UNK         0.0717 
     86 H86        27.9949   -2.1029   -5.8388 H         1 UNK         0.0934 
     87 H87        28.9719   -2.1081   -7.2833 H         1 UNK         0.0934 
     88 H88        26.8863   -2.2146   -8.6962 H         1 UNK         0.0739 
     89 H89        25.5100   -2.0744   -6.0905 H         1 UNK         0.3093 
     90 H90        22.3196   -1.6520   -7.5225 H         1 UNK         0.0818 
     91 H91        21.7167   -3.7351   -6.3067 H         1 UNK         0.0819 
     92 H92        22.5731   -4.1269   -7.7876 H         1 UNK         0.0819 
     93 H93        23.4119   -4.2224   -6.2459 H         1 UNK         0.0819 
     94 H94        23.1243   -2.1710   -4.8435 H         1 UNK         0.3041 
     95 H95        24.1378    1.1101   -3.9555 H         1 UNK         0.0784 
     96 H96        21.6396    1.1981   -3.9075 H         1 UNK         0.0793 
     97 H97        21.5844   -0.4316   -3.2502 H         1 UNK         0.0793 
     98 H98        22.3046    0.8799   -2.3153 H         1 UNK         0.0793 
     99 H99        23.8248   -1.1178   -2.3015 H         1 UNK         0.3024 
    100 H100       25.5157   -2.2291   -1.4704 H         1 UNK         0.1171 
    101 H101       25.5115   -3.9905   -3.2238 H         1 UNK         0.0786 
    102 H102       26.9445   -4.1727   -2.2243 H         1 UNK         0.0786 
    103 H103       27.0702   -3.4524   -3.8277 H         1 UNK         0.0786 
    104 H104       27.9392   -1.0064   -2.6250 H         1 UNK         0.2977 
    105 H105       26.7000   -0.0344   -5.8354 H         1 UNK         0.3127 
    106 H106       28.3439    1.9716   -6.7942 H         1 UNK         0.0770 
    107 H107       26.0625    2.1830   -4.7640 H         1 UNK         0.0814 
    108 H108       27.3964    3.3167   -4.9191 H         1 UNK         0.0814 
    109 H109       27.7109    1.6644   -4.4140 H         1 UNK         0.0814 
    110 H110       24.9845    1.5284   -7.6576 H         1 UNK         0.2983 
    111 H111       24.4032    4.0936   -8.7341 H         1 UNK         0.0947 
    112 H112       22.7128    2.8139  -10.0849 H         1 UNK         0.0806 
    113 H113       22.6821    2.3404   -8.3941 H         1 UNK         0.0806 
    114 H114       23.4586    1.2997   -9.5864 H         1 UNK         0.0806 
    115 H115       26.5421    1.5727   -9.9046 H         1 UNK         0.3000 
    116 H116       27.0551    3.0876  -12.4402 H         1 UNK         0.0850 
    117 H117       27.9750    0.9146  -13.2914 H         1 UNK         0.0810 
    118 H118       26.2559    0.8122  -12.9467 H         1 UNK         0.0810 
    119 H119       27.4182    0.0990  -11.8346 H         1 UNK         0.0810 
    120 H120       28.6868    0.8445  -10.1272 H         1 UNK         0.3040 
    121 H121       30.6175    2.5980   -9.1492 H         1 UNK         0.0766 
    122 H122       31.7123    2.5702  -11.3969 H         1 UNK         0.0812 
    123 H123       31.6367    0.8097  -11.4446 H         1 UNK         0.0812 
    124 H124       32.6793    1.6226  -10.2856 H         1 UNK         0.0812 
    125 H125       31.6889    1.5567   -7.4380 H         1 UNK         0.3205 
    126 H126       31.4658   -1.3740   -7.1147 H         1 UNK         0.0754 
    127 H127       30.6476   -1.1250   -4.8406 H         1 UNK         0.0769 
    128 H128       29.5521   -0.1816   -5.8284 H         1 UNK         0.0769 
    129 H129       30.7878    0.6291   -4.8788 H         1 UNK         0.0769 
    130 H130       33.2297   -2.1850   -5.8102 H         1 UNK         0.2981 
    131 H131       35.5755   -0.4848   -6.0191 H         1 UNK         0.0541 
    132 H132       33.3917   -0.8773   -3.3907 H         1 UNK         0.3459 
    133 H133       34.5084   -0.3327   -2.1666 H         1 UNK         0.3459 
    134 H134       36.9126   -2.3620   -5.8334 H         1 UNK         0.0612 
    135 H135       35.5721   -2.8733   -6.8017 H         1 UNK         0.0612 
    136 H136       34.6412   -5.0347   -6.5709 H         1 UNK         0.0624 
    137 H137       34.5404   -6.0427   -5.1508 H         1 UNK         0.0624 
@<TRIPOS>BOND
     1    1    2 1    
     2    1   72 1    
     3    1   73 1    
     4    1   74 1    
     5    2    3 2    
     6    2    4 am   BACKBONE|DICT|INTERRES
     7    4    5 1    
     8    4   75 1    
     9    5    6 1    
    10    5   35 1    
    11    5   76 1    
    12    6    7 1    
    13    6   77 1    
    14    6   78 1    
    15    7    8 1    
    16    8    9 1    
    17    8   79 1    
    18    8   80 1    
    19    9   10 ar   
    20    9   14 ar   
    21   10   11 ar   
    22   10   81 1    
    23   11   12 ar   
    24   11   71 1    
    25   12   13 ar   
    26   12   82 1    
    27   13   14 ar   
    28   13   15 1    
    29   14   83 1    
    30   15   16 1    
    31   15   84 1    
    32   15   85 1    
    33   16   17 1    
    34   17   18 1    
    35   17   86 1    
    36   17   87 1    
    37   18   19 1    
    38   18   37 1    
    39   18   88 1    
    40   19   20 am   BACKBONE|DICT|INTERRES
    41   19   89 1    
    42   20   21 2    
    43   20   22 1    
    44   22   23 1    
    45   22   24 1    
    46   22   90 1    
    47   23   91 1    
    48   23   92 1    
    49   23   93 1    
    50   24   25 am   BACKBONE|DICT|INTERRES
    51   24   94 1    
    52   25   26 2    
    53   25   27 1    
    54   27   28 1    
    55   27   29 1    
    56   27   95 1    
    57   28   96 1    
    58   28   97 1    
    59   28   98 1    
    60   29   30 am   BACKBONE|DICT|INTERRES
    61   29   99 1    
    62   30   31 2    
    63   30   32 1    
    64   32   33 1    
    65   32   34 1    
    66   32  100 1    
    67   33  101 1    
    68   33  102 1    
    69   33  103 1    
    70   34   35 am   BACKBONE|DICT|INTERRES
    71   34  104 1    
    72   35   36 2    
    73   37   38 2    
    74   37   39 am   BACKBONE|DICT|INTERRES
    75   39   40 1    
    76   39  105 1    
    77   40   41 1    
    78   40   42 1    
    79   40  106 1    
    80   41  107 1    
    81   41  108 1    
    82   41  109 1    
    83   42   43 2    
    84   42   44 am   BACKBONE|DICT|INTERRES
    85   44   45 1    
    86   44  110 1    
    87   45   46 1    
    88   45   47 1    
    89   45  111 1    
    90   46  112 1    
    91   46  113 1    
    92   46  114 1    
    93   47   48 2    
    94   47   49 am   BACKBONE|DICT|INTERRES
    95   49   50 1    
    96   49  115 1    
    97   50   51 1    
    98   50   52 1    
    99   50  116 1    
   100   51  117 1    
   101   51  118 1    
   102   51  119 1    
   103   52   53 2    
   104   52   54 am   BACKBONE|DICT|INTERRES
   105   54   55 1    
   106   54  120 1    
   107   55   56 1    
   108   55   57 1    
   109   55  121 1    
   110   56  122 1    
   111   56  123 1    
   112   56  124 1    
   113   57   58 2    
   114   57   59 am   BACKBONE|DICT|INTERRES
   115   59   60 1    
   116   59  125 1    
   117   60   61 1    
   118   60   62 1    
   119   60  126 1    
   120   61  127 1    
   121   61  128 1    
   122   61  129 1    
   123   62   63 2    
   124   62   64 am   BACKBONE|DICT|INTERRES
   125   64   65 1    
   126   64  130 1    
   127   65   66 1    
   128   65   69 1    
   129   65  131 1    
   130   66   67 am   BACKBONE|DICT|INTERRES
   131   66   68 2    
   132   67  132 1    
   133   67  133 1    
   134   69   70 1    
   135   69  134 1    
   136   69  135 1    
   137   70   71 1    
   138   71  136 1    
   139   71  137 1    
@<TRIPOS>SUBSTRUCTURE
     1 UNK         1 GROUP             0       ****    0 ROOT    
