@<TRIPOS>MOLECULE
3R137
137   139    1
SMALL
USER_CHARGES


@<TRIPOS>ATOM
      1 CA         29.0741    0.6014   -3.0140 C.3       0 UNK        -0.2020 
      2 C          29.8325    0.3817   -1.7081 C.2       0 UNK         0.4855 
      3 O          30.4312    1.3236   -1.1920 O.2       0 UNK        -0.5197 
      4 N          29.8473   -0.8297   -1.1348 N.am      1 UNK        -0.4892 
      5 CA         29.1049   -2.0297   -1.5477 C.3       1 UNK         0.0835 
      6 C6         29.6165   -3.2933   -0.8084 C.3       12 UNK        -0.0855 
      7 S7         31.4214   -3.5462   -0.9700 S.3       12 UNK        -0.2931 
      8 C8         31.5367   -5.1060   -1.9021 C.3       12 UNK         0.0378 
      9 C9         31.3808   -4.8890   -3.4000 C.ar      12 UNK        -0.0802 
     10 C10        32.4969   -4.5818   -4.1858 C.ar      12 UNK        -0.0944 
     11 C11        32.3685   -4.4208   -5.5690 C.ar      12 UNK        -0.0787 
     12 C12        31.1089   -4.5455   -6.1617 C.ar      12 UNK        -0.0862 
     13 C13        29.9850   -4.8463   -5.3870 C.ar      12 UNK        -0.0733 
     14 C14        30.1303   -5.0296   -4.0076 C.ar      12 UNK        -0.0832 
     15 C15        28.6227   -5.0002   -6.0511 C.3       12 UNK         0.0240 
     16 S16        27.3394   -3.9790   -5.2624 S.3       12 UNK        -0.2522 
     17 C17        27.9178   -2.2869   -5.6230 C.3       12 UNK        -0.0967 
     18 CA         27.0914   -1.5810   -6.7263 C.3       5 UNK         0.0660 
     19 N          25.6453   -1.6772   -6.5230 N.am      5 UNK        -0.4015 
     20 C          24.7230   -1.5101   -7.4809 C.2       4 UNK         0.4946 
     21 O          24.9928   -1.3134   -8.6653 O.2       4 UNK        -0.5353 
     22 CA         23.2464   -1.5567   -7.0462 C.3       4 UNK         0.0277 
     23 CB         22.6893   -2.9812   -7.1982 C.3       4 UNK        -0.1981 
     24 N          23.0341   -1.0971   -5.6706 N.am      4 UNK        -0.4209 
     25 C          23.2156    0.1652   -5.2561 C.2       3 UNK         0.4942 
     26 O          23.5183    1.0931   -6.0056 O.2       3 UNK        -0.5208 
     27 CA         23.1070    0.4169   -3.7398 C.3       3 UNK         0.0250 
     28 CB         21.6472    0.6820   -3.3392 C.3       3 UNK        -0.1990 
     29 N          23.6564   -0.6731   -2.9194 N.am      3 UNK        -0.4232 
     30 C          24.9235   -1.1052   -2.9866 C.2       2 UNK         0.4993 
     31 O          25.7584   -0.6245   -3.7569 O.2       2 UNK        -0.5286 
     32 CA         25.2989   -2.3115   -2.1084 C.3       2 UNK         0.0209 
     33 CB         24.6215   -3.5910   -2.6302 C.3       2 UNK        -0.1931 
     34 N          26.7523   -2.5140   -2.0995 N.am      2 UNK        -0.4546 
     35 C          27.5899   -1.8427   -1.2992 C.2       1 UNK         0.5154 
     36 O          27.2061   -1.1062   -0.3860 O.2       1 UNK        -0.5181 
     37 C          27.5038   -0.1047   -6.8408 C.2       5 UNK         0.5014 
     38 O          28.2674    0.2358   -7.7433 O.2       5 UNK        -0.5248 
     39 N          26.9677    0.7446   -5.9481 N.am      6 UNK        -0.4434 
     40 CA         27.1494    2.2018   -5.9310 C.3       6 UNK         0.0363 
     41 CB         26.4282    2.7996   -4.7123 C.3       6 UNK        -0.1936 
     42 C          26.6726    2.8892   -7.2212 C.2       6 UNK         0.5081 
     43 O          27.3142    3.8338   -7.6793 O.2       6 UNK        -0.5248 
     44 N          25.5768    2.3802   -7.7990 N.am      7 UNK        -0.4718 
     45 CA         25.0427    2.7922   -9.0994 C.3       7 UNK         0.0273 
     46 CB         23.6025    2.2677   -9.2251 C.3       7 UNK        -0.1935 
     47 C          25.8907    2.3272  -10.3020 C.2       7 UNK         0.5018 
     48 O          25.6547    2.8071  -11.4121 O.2       7 UNK        -0.5186 
     49 N          26.8331    1.4029  -10.0775 N.am      8 UNK        -0.4240 
     50 CA         27.7266    0.8287  -11.0770 C.3       8 UNK         0.0235 
     51 CB         27.5164   -0.7004  -11.1076 C.3       8 UNK        -0.2000 
     52 C          29.1689    1.2658  -10.7658 C.2       8 UNK         0.4941 
     53 O          29.4604    2.4611  -10.8280 O.2       8 UNK        -0.5273 
     54 N          30.0530    0.3031  -10.4703 N.am      9 UNK        -0.4262 
     55 CA         31.4873    0.5102  -10.2549 C.3       9 UNK         0.0264 
     56 CB         32.2071   -0.8434  -10.3798 C.3       9 UNK        -0.1955 
     57 C          31.8509    1.1738   -8.9149 C.2       9 UNK         0.5031 
     58 O          32.9516    1.7185   -8.8100 O.2       9 UNK        -0.5390 
     59 N          30.9666    1.0838   -7.9100 N.am      10 UNK        -0.4204 
     60 CA         31.0979    1.5416   -6.5174 C.3       10 UNK         0.0237 
     61 CB         31.2280    3.0738   -6.4323 C.3       10 UNK        -0.1985 
     62 C          32.1869    0.8342   -5.6895 C.2       10 UNK         0.4970 
     63 O          31.9139    0.4639   -4.5494 O.2       10 UNK        -0.4914 
     64 N          33.3790    0.6475   -6.2657 N.am      11 UNK        -0.4285 
     65 CA         34.5249   -0.0834   -5.6963 C.3       11 UNK         0.1007 
     66 C          35.1853    0.5942   -4.4563 C.2       11 UNK         0.5703 
     67 N          34.9384    1.8721   -4.1921 N.am      11 UNK        -0.7361 
     68 O          35.9658   -0.0314   -3.7422 O.2       11 UNK        -0.4986 
     69 C69        34.2211   -1.5936   -5.4696 C.3       12 UNK        -0.0947 
     70 S70        33.6716   -2.4267   -6.9958 S.3       12 UNK        -0.2240 
     71 C71        33.5911   -4.1538   -6.4355 C.3       12 UNK         0.0194 
     72 H72        27.9993    0.5398   -2.8545 H         1 UNK         0.0906 
     73 H73        29.2957    1.5883   -3.4197 H         1 UNK         0.0906 
     74 H74        29.3673   -0.1295   -3.7653 H         1 UNK         0.0906 
     75 H75        30.3706   -0.9413   -0.2787 H         1 UNK         0.3140 
     76 H76        29.2677   -2.1787   -2.6168 H         1 UNK         0.1085 
     77 H77        29.3921   -3.2257    0.2583 H         1 UNK         0.0836 
     78 H78        29.0917   -4.1813   -1.1649 H         1 UNK         0.0836 
     79 H79        32.5102   -5.5563   -1.7018 H         1 UNK         0.0731 
     80 H80        30.7983   -5.8198   -1.5334 H         1 UNK         0.0731 
     81 H81        33.4687   -4.4838   -3.7212 H         1 UNK         0.1312 
     82 H82        31.0106   -4.4186   -7.2314 H         1 UNK         0.1406 
     83 H83        29.2663   -5.2833   -3.4090 H         1 UNK         0.1631 
     84 H84        28.3216   -6.0471   -5.9962 H         1 UNK         0.0717 
     85 H85        28.6699   -4.7467   -7.1114 H         1 UNK         0.0717 
     86 H86        27.8733   -1.7291   -4.6889 H         1 UNK         0.0934 
     87 H87        28.9733   -2.3071   -5.9011 H         1 UNK         0.0934 
     88 H88        27.3285   -2.0655   -7.6761 H         1 UNK         0.0739 
     89 H89        25.3450   -1.7842   -5.5646 H         1 UNK         0.3093 
     90 H90        22.6875   -0.8958   -7.7124 H         1 UNK         0.0818 
     91 H91        21.6241   -3.0181   -6.9692 H         1 UNK         0.0819 
     92 H92        22.8109   -3.3391   -8.2217 H         1 UNK         0.0819 
     93 H93        23.2001   -3.6886   -6.5435 H         1 UNK         0.0819 
     94 H94        22.7727   -1.7939   -4.9885 H         1 UNK         0.3041 
     95 H95        23.6877    1.3145   -3.5181 H         1 UNK         0.0784 
     96 H96        21.2255    1.5009   -3.9241 H         1 UNK         0.0793 
     97 H97        21.0161   -0.1928   -3.5011 H         1 UNK         0.0793 
     98 H98        21.5687    0.9640   -2.2891 H         1 UNK         0.0793 
     99 H99        23.0210   -1.1158   -2.2705 H         1 UNK         0.3024 
    100 H100       24.9514   -2.1185   -1.0905 H         1 UNK         0.1171 
    101 H101       23.5360   -3.5258   -2.5474 H         1 UNK         0.0786 
    102 H102       24.8548   -3.7802   -3.6781 H         1 UNK         0.0786 
    103 H103       24.9317   -4.4649   -2.0569 H         1 UNK         0.0786 
    104 H104       27.1232   -3.0846   -2.8466 H         1 UNK         0.2977 
    105 H105       26.3861    0.3525   -5.2095 H         1 UNK         0.3127 
    106 H106       28.2147    2.4054   -5.8255 H         1 UNK         0.0770 
    107 H107       25.3490    2.6611   -4.7747 H         1 UNK         0.0814 
    108 H108       26.6127    3.8723   -4.6408 H         1 UNK         0.0814 
    109 H109       26.7675    2.3511   -3.7799 H         1 UNK         0.0814 
    110 H110       25.0615    1.6604   -7.3024 H         1 UNK         0.2983 
    111 H111       25.0154    3.8836   -9.1267 H         1 UNK         0.0947 
    112 H112       23.1471    2.5896  -10.1626 H         1 UNK         0.0806 
    113 H113       22.9728    2.6377   -8.4156 H         1 UNK         0.0806 
    114 H114       23.5699    1.1777   -9.2028 H         1 UNK         0.0806 
    115 H115       27.0061    1.1087   -9.1231 H         1 UNK         0.3000 
    116 H116       27.4920    1.2180  -12.0698 H         1 UNK         0.0850 
    117 H117       28.1531   -1.1772  -11.8541 H         1 UNK         0.0810 
    118 H118       26.4861   -0.9421  -11.3703 H         1 UNK         0.0810 
    119 H119       27.7165   -1.1641  -10.1408 H         1 UNK         0.0810 
    120 H120       29.7202   -0.6489  -10.4233 H         1 UNK         0.3040 
    121 H121       31.8559    1.1651  -11.0476 H         1 UNK         0.0766 
    122 H122       33.2847   -0.7271  -10.2542 H         1 UNK         0.0812 
    123 H123       32.0447   -1.2926  -11.3597 H         1 UNK         0.0812 
    124 H124       31.8688   -1.5524   -9.6226 H         1 UNK         0.0812 
    125 H125       30.0758    0.6316   -8.1079 H         1 UNK         0.3205 
    126 H126       30.1562    1.2700   -6.0429 H         1 UNK         0.0754 
    127 H127       31.2267    3.4073   -5.3937 H         1 UNK         0.0769 
    128 H128       30.3941    3.5673   -6.9325 H         1 UNK         0.0769 
    129 H129       32.1512    3.4322   -6.8882 H         1 UNK         0.0769 
    130 H130       33.4986    1.0133   -7.2075 H         1 UNK         0.2981 
    131 H131       35.2967   -0.0303   -6.4647 H         1 UNK         0.0541 
    132 H132       35.3786    2.3063   -3.3966 H         1 UNK         0.3459 
    133 H133       34.3087    2.3995   -4.7745 H         1 UNK         0.3459 
    134 H134       33.4599   -1.7262   -4.6993 H         1 UNK         0.0612 
    135 H135       35.1122   -2.1132   -5.1138 H         1 UNK         0.0612 
    136 H136       34.5097   -4.4101   -5.9055 H         1 UNK         0.0624 
    137 H137       33.5564   -4.8019   -7.3123 H         1 UNK         0.0624 
@<TRIPOS>BOND
     1    1    2 1    
     2    1   72 1    
     3    1   73 1    
     4    1   74 1    
     5    2    3 2    
     6    2    4 am   BACKBONE|DICT|INTERRES
     7    4    5 1    
     8    4   75 1    
     9    5    6 1    
    10    5   35 1    
    11    5   76 1    
    12    6    7 1    
    13    6   77 1    
    14    6   78 1    
    15    7    8 1    
    16    8    9 1    
    17    8   79 1    
    18    8   80 1    
    19    9   10 ar   
    20    9   14 ar   
    21   10   11 ar   
    22   10   81 1    
    23   11   12 ar   
    24   11   71 1    
    25   12   13 ar   
    26   12   82 1    
    27   13   14 ar   
    28   13   15 1    
    29   14   83 1    
    30   15   16 1    
    31   15   84 1    
    32   15   85 1    
    33   16   17 1    
    34   17   18 1    
    35   17   86 1    
    36   17   87 1    
    37   18   19 1    
    38   18   37 1    
    39   18   88 1    
    40   19   20 am   BACKBONE|DICT|INTERRES
    41   19   89 1    
    42   20   21 2    
    43   20   22 1    
    44   22   23 1    
    45   22   24 1    
    46   22   90 1    
    47   23   91 1    
    48   23   92 1    
    49   23   93 1    
    50   24   25 am   BACKBONE|DICT|INTERRES
    51   24   94 1    
    52   25   26 2    
    53   25   27 1    
    54   27   28 1    
    55   27   29 1    
    56   27   95 1    
    57   28   96 1    
    58   28   97 1    
    59   28   98 1    
    60   29   30 am   BACKBONE|DICT|INTERRES
    61   29   99 1    
    62   30   31 2    
    63   30   32 1    
    64   32   33 1    
    65   32   34 1    
    66   32  100 1    
    67   33  101 1    
    68   33  102 1    
    69   33  103 1    
    70   34   35 am   BACKBONE|DICT|INTERRES
    71   34  104 1    
    72   35   36 2    
    73   37   38 2    
    74   37   39 am   BACKBONE|DICT|INTERRES
    75   39   40 1    
    76   39  105 1    
    77   40   41 1    
    78   40   42 1    
    79   40  106 1    
    80   41  107 1    
    81   41  108 1    
    82   41  109 1    
    83   42   43 2    
    84   42   44 am   BACKBONE|DICT|INTERRES
    85   44   45 1    
    86   44  110 1    
    87   45   46 1    
    88   45   47 1    
    89   45  111 1    
    90   46  112 1    
    91   46  113 1    
    92   46  114 1    
    93   47   48 2    
    94   47   49 am   BACKBONE|DICT|INTERRES
    95   49   50 1    
    96   49  115 1    
    97   50   51 1    
    98   50   52 1    
    99   50  116 1    
   100   51  117 1    
   101   51  118 1    
   102   51  119 1    
   103   52   53 2    
   104   52   54 am   BACKBONE|DICT|INTERRES
   105   54   55 1    
   106   54  120 1    
   107   55   56 1    
   108   55   57 1    
   109   55  121 1    
   110   56  122 1    
   111   56  123 1    
   112   56  124 1    
   113   57   58 2    
   114   57   59 am   BACKBONE|DICT|INTERRES
   115   59   60 1    
   116   59  125 1    
   117   60   61 1    
   118   60   62 1    
   119   60  126 1    
   120   61  127 1    
   121   61  128 1    
   122   61  129 1    
   123   62   63 2    
   124   62   64 am   BACKBONE|DICT|INTERRES
   125   64   65 1    
   126   64  130 1    
   127   65   66 1    
   128   65   69 1    
   129   65  131 1    
   130   66   67 am   BACKBONE|DICT|INTERRES
   131   66   68 2    
   132   67  132 1    
   133   67  133 1    
   134   69   70 1    
   135   69  134 1    
   136   69  135 1    
   137   70   71 1    
   138   71  136 1    
   139   71  137 1    
@<TRIPOS>SUBSTRUCTURE
     1 UNK         1 GROUP             0       ****    0 ROOT    
