@<TRIPOS>MOLECULE
3R137
137   139    1
SMALL
USER_CHARGES


@<TRIPOS>ATOM
      1 CA         24.8693   -6.1672   -4.9859 C.3       0 UNK        -0.2020 
      2 C          25.3604   -5.6273   -3.6517 C.2       0 UNK         0.4855 
      3 O          24.5468   -5.3107   -2.7831 O.2       0 UNK        -0.5197 
      4 N          26.6858   -5.5109   -3.4910 N.am      1 UNK        -0.4892 
      5 CA         27.3825   -4.9773   -2.3132 C.3       1 UNK         0.0835 
      6 C6         28.9150   -5.0588   -2.5249 C.3       12 UNK        -0.0855 
      7 S7         29.8927   -4.5728   -1.0605 S.3       12 UNK        -0.2931 
      8 C8         31.3359   -3.7615   -1.8290 C.3       12 UNK         0.0378 
      9 C9         30.9619   -2.5069   -2.6093 C.ar      12 UNK        -0.0802 
     10 C10        31.0917   -2.4746   -4.0024 C.ar      12 UNK        -0.0944 
     11 C11        30.7452   -1.3259   -4.7201 C.ar      12 UNK        -0.0787 
     12 C12        30.2742   -0.2035   -4.0356 C.ar      12 UNK        -0.0862 
     13 C13        30.1355   -0.2229   -2.6458 C.ar      12 UNK        -0.0733 
     14 C14        30.4878   -1.3759   -1.9373 C.ar      12 UNK        -0.0832 
     15 C15        29.5943    0.9898   -1.9050 C.3       12 UNK         0.0240 
     16 S16        27.8281    0.7726   -1.5285 S.3       12 UNK        -0.2522 
     17 C17        27.0174    1.9914   -2.6174 C.3       12 UNK        -0.0967 
     18 CA         27.1223    1.6935   -4.1349 C.3       5 UNK         0.0660 
     19 N          26.7351    0.3194   -4.4809 N.am      5 UNK        -0.4015 
     20 C          26.8382   -0.2281   -5.7023 C.2       4 UNK         0.4946 
     21 O          27.3348    0.3549   -6.6661 O.2       4 UNK        -0.5353 
     22 CA         26.2362   -1.6252   -5.9217 C.3       4 UNK         0.0277 
     23 CB         27.3384   -2.6909   -6.0354 C.3       4 UNK        -0.1981 
     24 N          25.2750   -1.9972   -4.8800 N.am      4 UNK        -0.4209 
     25 C          24.0247   -1.5137   -4.8023 C.2       3 UNK         0.4942 
     26 O          23.5616   -0.7097   -5.6115 O.2       3 UNK        -0.5208 
     27 CA         23.1469   -1.9727   -3.6239 C.3       3 UNK         0.0250 
     28 CB         22.2073   -3.1088   -4.0574 C.3       3 UNK        -0.1990 
     29 N          23.9333   -2.3977   -2.4632 N.am      3 UNK        -0.4232 
     30 C          24.5282   -1.5432   -1.6166 C.2       2 UNK         0.4993 
     31 O          24.3944   -0.3214   -1.6838 O.2       2 UNK        -0.5286 
     32 CA         25.4540   -2.1382   -0.5369 C.3       2 UNK         0.0209 
     33 CB         24.6820   -2.3510    0.7750 C.3       2 UNK        -0.1931 
     34 N          26.1047   -3.3946   -0.9268 N.am      2 UNK        -0.4546 
     35 C          26.8986   -3.5451   -1.9969 C.2       1 UNK         0.5154 
     36 O          27.1780   -2.6273   -2.7671 O.2       1 UNK        -0.5181 
     37 C          26.3432    2.7601   -4.9346 C.2       5 UNK         0.5014 
     38 O          26.8821    3.8410   -5.1747 O.2       5 UNK        -0.5248 
     39 N          25.1053    2.4414   -5.3441 N.am      6 UNK        -0.4434 
     40 CA         24.2785    3.2871   -6.2069 C.3       6 UNK         0.0363 
     41 CB         22.8167    2.8197   -6.1216 C.3       6 UNK        -0.1936 
     42 C          24.7549    3.2977   -7.6713 C.2       6 UNK         0.5081 
     43 O          24.5173    4.2840   -8.3691 O.2       6 UNK        -0.5248 
     44 N          25.4038    2.2118   -8.1148 N.am      7 UNK        -0.4718 
     45 CA         25.9726    2.0797   -9.4563 C.3       7 UNK         0.0273 
     46 CB         25.9357    0.6044   -9.8919 C.3       7 UNK        -0.1935 
     47 C          27.4053    2.6282   -9.5091 C.2       7 UNK         0.5018 
     48 O          27.7277    3.3735  -10.4348 O.2       7 UNK        -0.5186 
     49 N          28.2278    2.2429   -8.5189 N.am      8 UNK        -0.4240 
     50 CA         29.6488    2.5789   -8.3552 C.3       8 UNK         0.0235 
     51 CB         29.8157    4.0689   -7.9922 C.3       8 UNK        -0.2000 
     52 C          30.5088    2.1505   -9.5632 C.2       8 UNK         0.4941 
     53 O          31.3878    2.8969  -10.0020 O.2       8 UNK        -0.5273 
     54 N          30.2229    0.9551  -10.0977 N.am      9 UNK        -0.4262 
     55 CA         30.8299    0.3835  -11.3017 C.3       9 UNK         0.0264 
     56 CB         29.9031   -0.7236  -11.8384 C.3       9 UNK        -0.1955 
     57 C          32.2659   -0.1177  -11.0547 C.2       9 UNK         0.5031 
     58 O          32.5078   -1.3269  -11.0723 O.2       9 UNK        -0.5390 
     59 N          33.1850    0.8233  -10.7968 N.am      10 UNK        -0.4204 
     60 CA         34.6215    0.6759  -10.5062 C.3       10 UNK         0.0237 
     61 CB         35.3729   -0.0092  -11.6649 C.3       10 UNK        -0.1985 
     62 C          34.9292   -0.0050   -9.1597 C.2       10 UNK         0.4970 
     63 O          35.7744    0.4946   -8.4165 O.2       10 UNK        -0.4914 
     64 N          34.2240   -1.1024   -8.8651 N.am      11 UNK        -0.4285 
     65 CA         34.1981   -1.8271   -7.5835 C.3       11 UNK         0.1007 
     66 C          35.5149   -2.5784   -7.2217 C.2       11 UNK         0.5703 
     67 N          36.4352   -2.7857   -8.1563 N.am      11 UNK        -0.7361 
     68 O          35.6947   -3.0136   -6.0866 O.2       11 UNK        -0.4986 
     69 C69        33.6549   -0.9613   -6.4080 C.3       12 UNK        -0.0947 
     70 S70        32.0945   -0.1018   -6.8127 S.3       12 UNK        -0.2240 
     71 C71        30.8504   -1.2950   -6.2374 C.3       12 UNK         0.0194 
     72 H72        24.0951   -6.9173   -4.8262 H         1 UNK         0.0906 
     73 H73        24.4461   -5.3615   -5.5848 H         1 UNK         0.0906 
     74 H74        25.6731   -6.6303   -5.5577 H         1 UNK         0.0906 
     75 H75        27.2881   -5.7808   -4.2554 H         1 UNK         0.3140 
     76 H76        27.1268   -5.6216   -1.4693 H         1 UNK         0.1085 
     77 H77        29.1994   -6.0817   -2.7773 H         1 UNK         0.0836 
     78 H78        29.2008   -4.4513   -3.3844 H         1 UNK         0.0836 
     79 H79        31.8470   -4.4806   -2.4713 H         1 UNK         0.0731 
     80 H80        32.0471   -3.4940   -1.0463 H         1 UNK         0.0731 
     81 H81        31.4545   -3.3464   -4.5293 H         1 UNK         0.1312 
     82 H82        30.0181    0.6823   -4.5968 H         1 UNK         0.1406 
     83 H83        30.3733   -1.4013   -0.8622 H         1 UNK         0.1631 
     84 H84        29.7557    1.9023   -2.4807 H         1 UNK         0.0717 
     85 H85        30.1402    1.1206   -0.9696 H         1 UNK         0.0717 
     86 H86        25.9686    2.0347   -2.3154 H         1 UNK         0.0934 
     87 H87        27.4327    2.9762   -2.3931 H         1 UNK         0.0934 
     88 H88        28.1641    1.8128   -4.4279 H         1 UNK         0.0739 
     89 H89        26.3785   -0.2473   -3.7232 H         1 UNK         0.3093 
     90 H90        25.7044   -1.5997   -6.8754 H         1 UNK         0.0818 
     91 H91        27.9522   -2.5139   -6.9191 H         1 UNK         0.0819 
     92 H92        28.0075   -2.6836   -5.1749 H         1 UNK         0.0819 
     93 H93        26.9191   -3.6922   -6.1306 H         1 UNK         0.0819 
     94 H94        25.6391   -2.5615   -4.1205 H         1 UNK         0.3041 
     95 H95        22.5266   -1.1230   -3.3298 H         1 UNK         0.0784 
     96 H96        21.5722   -2.7930   -4.8863 H         1 UNK         0.0793 
     97 H97        22.7573   -3.9892   -4.3877 H         1 UNK         0.0793 
     98 H98        21.5490   -3.4115   -3.2429 H         1 UNK         0.0793 
     99 H99        24.1008   -3.3952   -2.3597 H         1 UNK         0.3024 
    100 H100       26.2439   -1.4073   -0.3545 H         1 UNK         0.1171 
    101 H101       25.3444   -2.6747    1.5780 H         1 UNK         0.0786 
    102 H102       24.2081   -1.4245    1.1028 H         1 UNK         0.0786 
    103 H103       23.8953   -3.0983    0.6639 H         1 UNK         0.0786 
    104 H104       25.8803   -4.2084   -0.3722 H         1 UNK         0.2977 
    105 H105       24.7304    1.5330   -5.1059 H         1 UNK         0.3127 
    106 H106       24.3301    4.3130   -5.8355 H         1 UNK         0.0770 
    107 H107       22.6975    1.7971   -6.4823 H         1 UNK         0.0814 
    108 H108       22.1687    3.4556   -6.7265 H         1 UNK         0.0814 
    109 H109       22.4448    2.8604   -5.0977 H         1 UNK         0.0814 
    110 H110       25.6105    1.4685   -7.4609 H         1 UNK         0.2983 
    111 H111       25.3688    2.6518  -10.1648 H         1 UNK         0.0947 
    112 H112       26.3479    0.4849  -10.8948 H         1 UNK         0.0806 
    113 H113       24.9136    0.2261   -9.9156 H         1 UNK         0.0806 
    114 H114       26.5125   -0.0368   -9.2247 H         1 UNK         0.0806 
    115 H115       27.8554    1.5965   -7.8223 H         1 UNK         0.3000 
    116 H116       30.0018    1.9931   -7.5055 H         1 UNK         0.0850 
    117 H117       30.8541    4.2983   -7.7500 H         1 UNK         0.0810 
    118 H118       29.2138    4.3330   -7.1223 H         1 UNK         0.0810 
    119 H119       29.5209    4.7208   -8.8151 H         1 UNK         0.0810 
    120 H120       29.5077    0.3996   -9.6517 H         1 UNK         0.3040 
    121 H121       30.8860    1.1644  -12.0633 H         1 UNK         0.0766 
    122 H122       28.9154   -0.3314  -12.0816 H         1 UNK         0.0812 
    123 H123       29.7756   -1.5311  -11.1161 H         1 UNK         0.0812 
    124 H124       30.3086   -1.1636  -12.7505 H         1 UNK         0.0812 
    125 H125       32.8195    1.7680  -10.6942 H         1 UNK         0.3205 
    126 H126       35.0046    1.6949  -10.4303 H         1 UNK         0.0754 
    127 H127       36.4475   -0.0198  -11.4778 H         1 UNK         0.0769 
    128 H128       35.2136    0.5178  -12.6057 H         1 UNK         0.0769 
    129 H129       35.0592   -1.0442  -11.8039 H         1 UNK         0.0769 
    130 H130       33.5677   -1.4253   -9.5725 H         1 UNK         0.2981 
    131 H131       33.4740   -2.6270   -7.7391 H         1 UNK         0.0541 
    132 H132       36.2955   -2.4416   -9.0925 H         1 UNK         0.3459 
    133 H133       37.2790   -3.2825   -7.9184 H         1 UNK         0.3459 
    134 H134       34.3877   -0.2036   -6.1268 H         1 UNK         0.0612 
    135 H135       33.5008   -1.5726   -5.5176 H         1 UNK         0.0612 
    136 H136       29.8837   -1.0079   -6.6523 H         1 UNK         0.0624 
    137 H137       31.0786   -2.2829   -6.6400 H         1 UNK         0.0624 
@<TRIPOS>BOND
     1    1    2 1    
     2    1   72 1    
     3    1   73 1    
     4    1   74 1    
     5    2    3 2    
     6    2    4 am   BACKBONE|DICT|INTERRES
     7    4    5 1    
     8    4   75 1    
     9    5    6 1    
    10    5   35 1    
    11    5   76 1    
    12    6    7 1    
    13    6   77 1    
    14    6   78 1    
    15    7    8 1    
    16    8    9 1    
    17    8   79 1    
    18    8   80 1    
    19    9   10 ar   
    20    9   14 ar   
    21   10   11 ar   
    22   10   81 1    
    23   11   12 ar   
    24   11   71 1    
    25   12   13 ar   
    26   12   82 1    
    27   13   14 ar   
    28   13   15 1    
    29   14   83 1    
    30   15   16 1    
    31   15   84 1    
    32   15   85 1    
    33   16   17 1    
    34   17   18 1    
    35   17   86 1    
    36   17   87 1    
    37   18   19 1    
    38   18   37 1    
    39   18   88 1    
    40   19   20 am   BACKBONE|DICT|INTERRES
    41   19   89 1    
    42   20   21 2    
    43   20   22 1    
    44   22   23 1    
    45   22   24 1    
    46   22   90 1    
    47   23   91 1    
    48   23   92 1    
    49   23   93 1    
    50   24   25 am   BACKBONE|DICT|INTERRES
    51   24   94 1    
    52   25   26 2    
    53   25   27 1    
    54   27   28 1    
    55   27   29 1    
    56   27   95 1    
    57   28   96 1    
    58   28   97 1    
    59   28   98 1    
    60   29   30 am   BACKBONE|DICT|INTERRES
    61   29   99 1    
    62   30   31 2    
    63   30   32 1    
    64   32   33 1    
    65   32   34 1    
    66   32  100 1    
    67   33  101 1    
    68   33  102 1    
    69   33  103 1    
    70   34   35 am   BACKBONE|DICT|INTERRES
    71   34  104 1    
    72   35   36 2    
    73   37   38 2    
    74   37   39 am   BACKBONE|DICT|INTERRES
    75   39   40 1    
    76   39  105 1    
    77   40   41 1    
    78   40   42 1    
    79   40  106 1    
    80   41  107 1    
    81   41  108 1    
    82   41  109 1    
    83   42   43 2    
    84   42   44 am   BACKBONE|DICT|INTERRES
    85   44   45 1    
    86   44  110 1    
    87   45   46 1    
    88   45   47 1    
    89   45  111 1    
    90   46  112 1    
    91   46  113 1    
    92   46  114 1    
    93   47   48 2    
    94   47   49 am   BACKBONE|DICT|INTERRES
    95   49   50 1    
    96   49  115 1    
    97   50   51 1    
    98   50   52 1    
    99   50  116 1    
   100   51  117 1    
   101   51  118 1    
   102   51  119 1    
   103   52   53 2    
   104   52   54 am   BACKBONE|DICT|INTERRES
   105   54   55 1    
   106   54  120 1    
   107   55   56 1    
   108   55   57 1    
   109   55  121 1    
   110   56  122 1    
   111   56  123 1    
   112   56  124 1    
   113   57   58 2    
   114   57   59 am   BACKBONE|DICT|INTERRES
   115   59   60 1    
   116   59  125 1    
   117   60   61 1    
   118   60   62 1    
   119   60  126 1    
   120   61  127 1    
   121   61  128 1    
   122   61  129 1    
   123   62   63 2    
   124   62   64 am   BACKBONE|DICT|INTERRES
   125   64   65 1    
   126   64  130 1    
   127   65   66 1    
   128   65   69 1    
   129   65  131 1    
   130   66   67 am   BACKBONE|DICT|INTERRES
   131   66   68 2    
   132   67  132 1    
   133   67  133 1    
   134   69   70 1    
   135   69  134 1    
   136   69  135 1    
   137   70   71 1    
   138   71  136 1    
   139   71  137 1    
@<TRIPOS>SUBSTRUCTURE
     1 UNK         1 GROUP             0       ****    0 ROOT    
