@<TRIPOS>MOLECULE
3R137
137   139    1
SMALL
USER_CHARGES


@<TRIPOS>ATOM
      1 CA         25.5528   -6.8536   -3.4915 C.3       0 UNK        -0.2020 
      2 C          25.8401   -5.3995   -3.1540 C.2       0 UNK         0.4855 
      3 O          25.7629   -4.5463   -4.0372 O.2       0 UNK        -0.5197 
      4 N          26.1487   -5.1120   -1.8811 N.am      1 UNK        -0.4892 
      5 CA         26.5321   -3.8012   -1.3291 C.3       1 UNK         0.0835 
      6 C6         27.9725   -3.3745   -1.6986 C.3       12 UNK        -0.0855 
      7 S7         29.2737   -4.5689   -1.2466 S.3       12 UNK        -0.2931 
      8 C8         30.5130   -4.2708   -2.5646 C.3       12 UNK         0.0378 
      9 C9         30.9231   -2.8085   -2.7776 C.ar      12 UNK        -0.0802 
     10 C10        31.4177   -2.4180   -4.0269 C.ar      12 UNK        -0.0944 
     11 C11        31.7953   -1.0924   -4.2678 C.ar      12 UNK        -0.0787 
     12 C12        31.6496   -0.1404   -3.2555 C.ar      12 UNK        -0.0862 
     13 C13        31.1373   -0.5081   -2.0090 C.ar      12 UNK        -0.0733 
     14 C14        30.8209   -1.8469   -1.7643 C.ar      12 UNK        -0.0832 
     15 C15        30.8917    0.5387   -0.9295 C.3       12 UNK         0.0240 
     16 S16        29.6105    1.7580   -1.3949 S.3       12 UNK        -0.2522 
     17 C17        28.2497    0.7312   -2.0625 C.3       12 UNK        -0.0967 
     18 CA         28.1696    0.8269   -3.6099 C.3       5 UNK         0.0660 
     19 N          27.7208   -0.4211   -4.2433 N.am      5 UNK        -0.4015 
     20 C          28.0002   -0.7199   -5.5229 C.2       4 UNK         0.4946 
     21 O          28.6682    0.0061   -6.2596 O.2       4 UNK        -0.5353 
     22 CA         27.4111   -2.0055   -6.1207 C.3       4 UNK         0.0277 
     23 CB         28.3384   -3.2122   -5.9087 C.3       4 UNK        -0.1981 
     24 N          26.0565   -2.3193   -5.6654 N.am      4 UNK        -0.4209 
     25 C          24.9740   -1.5964   -5.9838 C.2       3 UNK         0.4942 
     26 O          25.0273   -0.5089   -6.5555 O.2       3 UNK        -0.5208 
     27 CA         23.6074   -2.1815   -5.6099 C.3       3 UNK         0.0250 
     28 CB         23.3174   -3.4642   -6.4084 C.3       3 UNK        -0.1990 
     29 N          23.5477   -2.4682   -4.1801 N.am      3 UNK        -0.4232 
     30 C          22.9932   -1.6593   -3.2671 C.2       2 UNK         0.4993 
     31 O          22.4029   -0.6150   -3.5438 O.2       2 UNK        -0.5286 
     32 CA         23.1108   -2.0731   -1.7876 C.3       2 UNK         0.0209 
     33 CB         21.8003   -2.7165   -1.3050 C.3       2 UNK        -0.1931 
     34 N          24.2254   -2.9814   -1.4970 N.am      2 UNK        -0.4546 
     35 C          25.5205   -2.6805   -1.6642 C.2       1 UNK         0.5154 
     36 O          25.9145   -1.5989   -2.1118 O.2       1 UNK        -0.5181 
     37 C          27.3318    2.0371   -4.0726 C.2       5 UNK         0.5014 
     38 O          27.8636    3.1454   -4.1493 O.2       5 UNK        -0.5248 
     39 N          26.0492    1.8085   -4.3963 N.am      6 UNK        -0.4434 
     40 CA         25.1543    2.8181   -4.9655 C.3       6 UNK         0.0363 
     41 CB         23.6968    2.3391   -4.8718 C.3       6 UNK        -0.1936 
     42 C          25.5317    3.1643   -6.4154 C.2       6 UNK         0.5081 
     43 O          25.5396    4.3424   -6.7735 O.2       6 UNK        -0.5248 
     44 N          25.8550    2.1376   -7.2146 N.am      7 UNK        -0.4718 
     45 CA         26.3434    2.2743   -8.5872 C.3       7 UNK         0.0273 
     46 CB         26.3087    0.9038   -9.2834 C.3       7 UNK        -0.1935 
     47 C          27.7576    2.8699   -8.6591 C.2       7 UNK         0.5018 
     48 O          28.0287    3.6609   -9.5634 O.2       7 UNK        -0.5186 
     49 N          28.6381    2.4529   -7.7352 N.am      8 UNK        -0.4240 
     50 CA         30.0599    2.7971   -7.5799 C.3       8 UNK         0.0235 
     51 CB         30.2649    4.3078   -7.3613 C.3       8 UNK        -0.2000 
     52 C          30.9580    2.2612   -8.7087 C.2       8 UNK         0.4941 
     53 O          31.9967    1.6664   -8.4228 O.2       8 UNK        -0.5273 
     54 N          30.5171    2.4164   -9.9644 N.am      9 UNK        -0.4262 
     55 CA         31.1563    1.9385  -11.1967 C.3       9 UNK         0.0264 
     56 CB         30.3682    2.4809  -12.4008 C.3       9 UNK        -0.1955 
     57 C          31.3130    0.4072  -11.2971 C.2       9 UNK         0.5031 
     58 O          32.0179   -0.0668  -12.1891 O.2       9 UNK        -0.5390 
     59 N          30.6764   -0.3383  -10.3827 N.am      10 UNK        -0.4204 
     60 CA         30.8881   -1.7683  -10.1565 C.3       10 UNK         0.0237 
     61 CB         29.8503   -2.2686   -9.1388 C.3       10 UNK        -0.1985 
     62 C          32.3168   -2.0956   -9.6777 C.2       10 UNK         0.4970 
     63 O          32.8114   -3.1827   -9.9784 O.2       10 UNK        -0.4914 
     64 N          32.9533   -1.1580   -8.9626 N.am      11 UNK        -0.4285 
     65 CA         34.3699   -1.2156   -8.5895 C.3       11 UNK         0.1007 
     66 C          35.2476   -0.6880   -9.7540 C.2       11 UNK         0.5703 
     67 N          36.3042   -1.4045  -10.1128 N.am      11 UNK        -0.7361 
     68 O          35.0038    0.3834  -10.3055 O.2       11 UNK        -0.4986 
     69 C69        34.6370   -0.4188   -7.2876 C.3       12 UNK        -0.0947 
     70 S70        34.0619   -1.3043   -5.8039 S.3       12 UNK        -0.2240 
     71 C71        32.3603   -0.6894   -5.6206 C.3       12 UNK         0.0194 
     72 H72        26.2513   -7.2040   -4.2508 H         1 UNK         0.0906 
     73 H73        25.6443   -7.5020   -2.6205 H         1 UNK         0.0906 
     74 H74        24.5422   -6.9534   -3.8863 H         1 UNK         0.0906 
     75 H75        26.1814   -5.8708   -1.2139 H         1 UNK         0.3140 
     76 H76        26.4968   -3.9085   -0.2436 H         1 UNK         0.1085 
     77 H77        28.0399   -3.1513   -2.7613 H         1 UNK         0.0836 
     78 H78        28.2073   -2.4492   -1.1749 H         1 UNK         0.0836 
     79 H79        30.1142   -4.6773   -3.4953 H         1 UNK         0.0731 
     80 H80        31.4076   -4.8510   -2.3354 H         1 UNK         0.0731 
     81 H81        31.5231   -3.1500   -4.8160 H         1 UNK         0.1312 
     82 H82        31.9133    0.8919   -3.4410 H         1 UNK         0.1406 
     83 H83        30.4607   -2.1296   -0.7857 H         1 UNK         0.1631 
     84 H84        31.8235    1.0665   -0.7220 H         1 UNK         0.0717 
     85 H85        30.5940    0.0658    0.0077 H         1 UNK         0.0717 
     86 H86        28.4145   -0.2978   -1.7522 H         1 UNK         0.0934 
     87 H87        27.3090    1.0218   -1.5901 H         1 UNK         0.0934 
     88 H88        29.1820    1.0058   -3.9785 H         1 UNK         0.0739 
     89 H89        27.1314   -1.0330   -3.6884 H         1 UNK         0.3093 
     90 H90        27.3507   -1.8391   -7.1984 H         1 UNK         0.0818 
     91 H91        28.3451   -3.5492   -4.8756 H         1 UNK         0.0819 
     92 H92        28.0296   -4.0556   -6.5261 H         1 UNK         0.0819 
     93 H93        29.3668   -2.9730   -6.1801 H         1 UNK         0.0819 
     94 H94        25.9370   -3.1886   -5.1443 H         1 UNK         0.3041 
     95 H95        22.8466   -1.4458   -5.8799 H         1 UNK         0.0784 
     96 H96        23.3763   -3.2766   -7.4815 H         1 UNK         0.0793 
     97 H97        24.0233   -4.2627   -6.1771 H         1 UNK         0.0793 
     98 H98        22.3146   -3.8376   -6.2003 H         1 UNK         0.0793 
     99 H99        24.0649   -3.2791   -3.8611 H         1 UNK         0.3024 
    100 H100       23.2754   -1.1562   -1.2167 H         1 UNK         0.1171 
    101 H101       21.8294   -2.9248   -0.2353 H         1 UNK         0.0786 
    102 H102       20.9518   -2.0532   -1.4800 H         1 UNK         0.0786 
    103 H103       21.5946   -3.6525   -1.8259 H         1 UNK         0.0786 
    104 H104       23.9882   -3.9029   -1.1575 H         1 UNK         0.2977 
    105 H105       25.6906    0.8669   -4.3310 H         1 UNK         0.3127 
    106 H106       25.2475    3.7295   -4.3706 H         1 UNK         0.0770 
    107 H107       23.5296    1.4222   -5.4376 H         1 UNK         0.0814 
    108 H108       23.0141    3.0927   -5.2662 H         1 UNK         0.0814 
    109 H109       23.4068    2.1490   -3.8382 H         1 UNK         0.0814 
    110 H110       25.7312    1.1887   -6.8667 H         1 UNK         0.2983 
    111 H111       25.6711    2.9491   -9.1218 H         1 UNK         0.0947 
    112 H112       26.6518    0.9794  -10.3162 H         1 UNK         0.0806 
    113 H113       25.2971    0.4979   -9.3064 H         1 UNK         0.0806 
    114 H114       26.9464    0.1772   -8.7780 H         1 UNK         0.0806 
    115 H115       28.3302    1.7201   -7.1004 H         1 UNK         0.3000 
    116 H116       30.3775    2.2910   -6.6663 H         1 UNK         0.0850 
    117 H117       31.3104    4.5290   -7.1431 H         1 UNK         0.0810 
    118 H118       29.6741    4.6660   -6.5178 H         1 UNK         0.0810 
    119 H119       29.9868    4.8927   -8.2384 H         1 UNK         0.0810 
    120 H120       29.6402    2.9229  -10.0723 H         1 UNK         0.3040 
    121 H121       32.1634    2.3596  -11.2245 H         1 UNK         0.0766 
    122 H122       30.3316    3.5705  -12.3932 H         1 UNK         0.0812 
    123 H123       29.3422    2.1106  -12.4094 H         1 UNK         0.0812 
    124 H124       30.8320    2.1813  -13.3417 H         1 UNK         0.0812 
    125 H125       30.1111    0.1474   -9.7027 H         1 UNK         0.3205 
    126 H126       30.7276   -2.2882  -11.1033 H         1 UNK         0.0754 
    127 H127       29.9804   -3.3325   -8.9352 H         1 UNK         0.0769 
    128 H128       28.8334   -2.1321   -9.5075 H         1 UNK         0.0769 
    129 H129       29.9359   -1.7398   -8.1889 H         1 UNK         0.0769 
    130 H130       32.5048   -0.2611   -8.8067 H         1 UNK         0.2981 
    131 H131       34.6428   -2.2573   -8.4072 H         1 UNK         0.0541 
    132 H132       36.5201   -2.2789   -9.6596 H         1 UNK         0.3459 
    133 H133       36.8941   -1.0673  -10.8575 H         1 UNK         0.3459 
    134 H134       35.7087   -0.2619   -7.1512 H         1 UNK         0.0612 
    135 H135       34.1930    0.5770   -7.3289 H         1 UNK         0.0612 
    136 H136       31.7327   -1.0943   -6.4153 H         1 UNK         0.0624 
    137 H137       32.3470    0.3957   -5.7354 H         1 UNK         0.0624 
@<TRIPOS>BOND
     1    1    2 1    
     2    1   72 1    
     3    1   73 1    
     4    1   74 1    
     5    2    3 2    
     6    2    4 am   BACKBONE|DICT|INTERRES
     7    4    5 1    
     8    4   75 1    
     9    5    6 1    
    10    5   35 1    
    11    5   76 1    
    12    6    7 1    
    13    6   77 1    
    14    6   78 1    
    15    7    8 1    
    16    8    9 1    
    17    8   79 1    
    18    8   80 1    
    19    9   10 ar   
    20    9   14 ar   
    21   10   11 ar   
    22   10   81 1    
    23   11   12 ar   
    24   11   71 1    
    25   12   13 ar   
    26   12   82 1    
    27   13   14 ar   
    28   13   15 1    
    29   14   83 1    
    30   15   16 1    
    31   15   84 1    
    32   15   85 1    
    33   16   17 1    
    34   17   18 1    
    35   17   86 1    
    36   17   87 1    
    37   18   19 1    
    38   18   37 1    
    39   18   88 1    
    40   19   20 am   BACKBONE|DICT|INTERRES
    41   19   89 1    
    42   20   21 2    
    43   20   22 1    
    44   22   23 1    
    45   22   24 1    
    46   22   90 1    
    47   23   91 1    
    48   23   92 1    
    49   23   93 1    
    50   24   25 am   BACKBONE|DICT|INTERRES
    51   24   94 1    
    52   25   26 2    
    53   25   27 1    
    54   27   28 1    
    55   27   29 1    
    56   27   95 1    
    57   28   96 1    
    58   28   97 1    
    59   28   98 1    
    60   29   30 am   BACKBONE|DICT|INTERRES
    61   29   99 1    
    62   30   31 2    
    63   30   32 1    
    64   32   33 1    
    65   32   34 1    
    66   32  100 1    
    67   33  101 1    
    68   33  102 1    
    69   33  103 1    
    70   34   35 am   BACKBONE|DICT|INTERRES
    71   34  104 1    
    72   35   36 2    
    73   37   38 2    
    74   37   39 am   BACKBONE|DICT|INTERRES
    75   39   40 1    
    76   39  105 1    
    77   40   41 1    
    78   40   42 1    
    79   40  106 1    
    80   41  107 1    
    81   41  108 1    
    82   41  109 1    
    83   42   43 2    
    84   42   44 am   BACKBONE|DICT|INTERRES
    85   44   45 1    
    86   44  110 1    
    87   45   46 1    
    88   45   47 1    
    89   45  111 1    
    90   46  112 1    
    91   46  113 1    
    92   46  114 1    
    93   47   48 2    
    94   47   49 am   BACKBONE|DICT|INTERRES
    95   49   50 1    
    96   49  115 1    
    97   50   51 1    
    98   50   52 1    
    99   50  116 1    
   100   51  117 1    
   101   51  118 1    
   102   51  119 1    
   103   52   53 2    
   104   52   54 am   BACKBONE|DICT|INTERRES
   105   54   55 1    
   106   54  120 1    
   107   55   56 1    
   108   55   57 1    
   109   55  121 1    
   110   56  122 1    
   111   56  123 1    
   112   56  124 1    
   113   57   58 2    
   114   57   59 am   BACKBONE|DICT|INTERRES
   115   59   60 1    
   116   59  125 1    
   117   60   61 1    
   118   60   62 1    
   119   60  126 1    
   120   61  127 1    
   121   61  128 1    
   122   61  129 1    
   123   62   63 2    
   124   62   64 am   BACKBONE|DICT|INTERRES
   125   64   65 1    
   126   64  130 1    
   127   65   66 1    
   128   65   69 1    
   129   65  131 1    
   130   66   67 am   BACKBONE|DICT|INTERRES
   131   66   68 2    
   132   67  132 1    
   133   67  133 1    
   134   69   70 1    
   135   69  134 1    
   136   69  135 1    
   137   70   71 1    
   138   71  136 1    
   139   71  137 1    
@<TRIPOS>SUBSTRUCTURE
     1 UNK         1 GROUP             0       ****    0 ROOT    
