@<TRIPOS>MOLECULE
3R137
137   139    1
SMALL
USER_CHARGES


@<TRIPOS>ATOM
      1 CA         29.2715   -2.9668   -4.6288 C.3       0 UNK        -0.2020 
      2 C          28.5405   -3.8115   -3.6016 C.2       0 UNK         0.4855 
      3 O          27.7319   -4.6663   -3.9647 O.2       0 UNK        -0.5197 
      4 N          28.8196   -3.5732   -2.3158 N.am      1 UNK        -0.4892 
      5 CA         28.2771   -4.2870   -1.1539 C.3       1 UNK         0.0835 
      6 C6         29.1877   -4.1239    0.0943 C.3       12 UNK        -0.0855 
      7 S7         30.9195   -4.6371   -0.1947 S.3       12 UNK        -0.2931 
      8 C8         31.8453   -3.0933    0.1017 C.3       12 UNK         0.0378 
      9 C9         31.7544   -2.1344   -1.0776 C.ar      12 UNK        -0.0802 
     10 C10        32.6812   -2.2105   -2.1220 C.ar      12 UNK        -0.0944 
     11 C11        32.6144   -1.3351   -3.2123 C.ar      12 UNK        -0.0787 
     12 C12        31.5841   -0.3839   -3.2525 C.ar      12 UNK        -0.0862 
     13 C13        30.6430   -0.3072   -2.2203 C.ar      12 UNK        -0.0733 
     14 C14        30.7509   -1.1648   -1.1231 C.ar      12 UNK        -0.0832 
     15 C15        29.4896    0.6805   -2.2983 C.3       12 UNK         0.0240 
     16 S16        27.9088   -0.2065   -2.4524 S.3       12 UNK        -0.2522 
     17 C17        26.8109    1.1072   -3.0661 C.3       12 UNK        -0.0967 
     18 CA         26.7461    1.1149   -4.6119 C.3       5 UNK         0.0660 
     19 N          26.2424   -0.1496   -5.1649 N.am      5 UNK        -0.4015 
     20 C          26.3222   -0.4939   -6.4600 C.2       4 UNK         0.4946 
     21 O          26.9013    0.1940   -7.3014 O.2       4 UNK        -0.5353 
     22 CA         25.5818   -1.7626   -6.9290 C.3       4 UNK         0.0277 
     23 CB         26.5619   -2.9216   -7.1622 C.3       4 UNK        -0.1981 
     24 N          24.5046   -2.2028   -6.0370 N.am      4 UNK        -0.4209 
     25 C          23.4286   -1.4711   -5.7136 C.2       3 UNK         0.4942 
     26 O          23.2041   -0.3539   -6.1797 O.2       3 UNK        -0.5208 
     27 CA         22.4717   -2.0444   -4.6529 C.3       3 UNK         0.0250 
     28 CB         21.2892   -2.7536   -5.3322 C.3       3 UNK        -0.1990 
     29 N          23.0800   -2.9523   -3.6690 N.am      3 UNK        -0.4232 
     30 C          24.1447   -2.6932   -2.8936 C.2       2 UNK         0.4993 
     31 O          24.8281   -1.6736   -3.0009 O.2       2 UNK        -0.5286 
     32 CA         24.5060   -3.7318   -1.8171 C.3       2 UNK         0.0209 
     33 CB         23.7272   -5.0603   -1.9260 C.3       2 UNK        -0.1931 
     34 N          25.9386   -4.0173   -1.8713 N.am      2 UNK        -0.4546 
     35 C          26.8049   -3.9012   -0.8590 C.2       1 UNK         0.5154 
     36 O          26.4800   -3.5198    0.2680 O.2       1 UNK        -0.5181 
     37 C          25.9782    2.3562   -5.1204 C.2       5 UNK         0.5014 
     38 O          26.4967    3.4639   -4.9777 O.2       5 UNK        -0.5248 
     39 N          24.7900    2.1791   -5.7238 N.am      6 UNK        -0.4434 
     40 CA         24.0818    3.2434   -6.4419 C.3       6 UNK         0.0363 
     41 CB         22.6289    2.8182   -6.7056 C.3       6 UNK        -0.1936 
     42 C          24.7798    3.6243   -7.7616 C.2       6 UNK         0.5081 
     43 O          24.6961    4.7827   -8.1704 O.2       6 UNK        -0.5248 
     44 N          25.4597    2.6572   -8.3957 N.am      7 UNK        -0.4718 
     45 CA         26.3047    2.8763   -9.5702 C.3       7 UNK         0.0273 
     46 CB         26.3009    1.6207  -10.4582 C.3       7 UNK        -0.1935 
     47 C          27.7342    3.2449   -9.1484 C.2       7 UNK         0.5018 
     48 O          28.3021    4.1839   -9.7067 O.2       7 UNK        -0.5186 
     49 N          28.2826    2.5000   -8.1751 N.am      8 UNK        -0.4240 
     50 CA         29.5884    2.6388   -7.5093 C.3       8 UNK         0.0235 
     51 CB         29.6911    3.9808   -6.7599 C.3       8 UNK        -0.2000 
     52 C          30.8270    2.4187   -8.3992 C.2       8 UNK         0.4941 
     53 O          31.8202    1.8801   -7.9108 O.2       8 UNK        -0.5273 
     54 N          30.7718    2.8344   -9.6694 N.am      9 UNK        -0.4262 
     55 CA         31.8248    2.6479  -10.6664 C.3       9 UNK         0.0264 
     56 CB         31.4558    3.4196  -11.9437 C.3       9 UNK        -0.1955 
     57 C          32.0483    1.1581  -10.9747 C.2       9 UNK         0.5031 
     58 O          31.0806    0.4493  -11.2623 O.2       9 UNK        -0.5390 
     59 N          33.3181    0.7300  -10.9203 N.am      10 UNK        -0.4204 
     60 CA         33.8042   -0.6343  -11.1676 C.3       10 UNK         0.0237 
     61 CB         33.6542   -1.0021  -12.6603 C.3       10 UNK        -0.1985 
     62 C          33.1900   -1.6895  -10.2224 C.2       10 UNK         0.4970 
     63 O          32.8693   -2.7950  -10.6635 O.2       10 UNK        -0.4914 
     64 N          33.0439   -1.3346   -8.9380 N.am      11 UNK        -0.4285 
     65 CA         32.5135   -2.2133   -7.8823 C.3       11 UNK         0.1007 
     66 C          33.4055   -3.4343   -7.5052 C.2       11 UNK         0.5703 
     67 N          34.6748   -3.4791   -7.8935 N.am      11 UNK        -0.7361 
     68 O          32.9305   -4.3614   -6.8539 O.2       11 UNK        -0.4986 
     69 C69        32.0753   -1.4077   -6.6315 C.3       12 UNK        -0.0947 
     70 S70        33.4249   -0.4794   -5.8223 S.3       12 UNK        -0.2240 
     71 C71        33.6873   -1.4582   -4.3002 C.3       12 UNK         0.0194 
     72 H72        28.6791   -2.0931   -4.8979 H         1 UNK         0.0906 
     73 H73        30.2230   -2.6261   -4.2274 H         1 UNK         0.0906 
     74 H74        29.4727   -3.5450   -5.5303 H         1 UNK         0.0906 
     75 H75        29.4825   -2.8430   -2.0919 H         1 UNK         0.3140 
     76 H76        28.2626   -5.3507   -1.4020 H         1 UNK         0.1085 
     77 H77        28.8061   -4.7344    0.9150 H         1 UNK         0.0836 
     78 H78        29.1610   -3.0961    0.4574 H         1 UNK         0.0836 
     79 H79        32.8907   -3.3456    0.2857 H         1 UNK         0.0731 
     80 H80        31.4885   -2.6156    1.0156 H         1 UNK         0.0731 
     81 H81        33.4648   -2.9553   -2.0826 H         1 UNK         0.1312 
     82 H82        31.4989    0.2962   -4.0877 H         1 UNK         0.1406 
     83 H83        30.0310   -1.0899   -0.3192 H         1 UNK         0.1631 
     84 H84        29.6158    1.3509   -3.1500 H         1 UNK         0.0717 
     85 H85        29.4733    1.3056   -1.4045 H         1 UNK         0.0717 
     86 H86        25.8172    0.9504   -2.6420 H         1 UNK         0.0934 
     87 H87        27.1599    2.0666   -2.6781 H         1 UNK         0.0934 
     88 H88        27.7679    1.2326   -4.9792 H         1 UNK         0.0739 
     89 H89        25.7562   -0.7567   -4.5094 H         1 UNK         0.3093 
     90 H90        25.1250   -1.5130   -7.8891 H         1 UNK         0.0818 
     91 H91        26.0820   -3.7410   -7.6975 H         1 UNK         0.0819 
     92 H92        27.4171   -2.6035   -7.7607 H         1 UNK         0.0819 
     93 H93        26.9452   -3.3194   -6.2242 H         1 UNK         0.0819 
     94 H94        24.6156   -3.1041   -5.5961 H         1 UNK         0.3041 
     95 H95        22.0796   -1.1923   -4.0939 H         1 UNK         0.0784 
     96 H96        20.7997   -2.0957   -6.0521 H         1 UNK         0.0793 
     97 H97        21.6096   -3.6459   -5.8717 H         1 UNK         0.0793 
     98 H98        20.5330   -3.0521   -4.6059 H         1 UNK         0.0793 
     99 H99        22.5944   -3.8243   -3.5148 H         1 UNK         0.3024 
    100 H100       24.2519   -3.2674   -0.8617 H         1 UNK         0.1171 
    101 H101       24.0282   -5.7513   -1.1382 H         1 UNK         0.0786 
    102 H102       22.6532   -4.9073   -1.8118 H         1 UNK         0.0786 
    103 H103       23.9007   -5.5589   -2.8807 H         1 UNK         0.0786 
    104 H104       26.3227   -4.2789   -2.7765 H         1 UNK         0.2977 
    105 H105       24.3920    1.2467   -5.7916 H         1 UNK         0.3127 
    106 H106       24.0637    4.1314   -5.8061 H         1 UNK         0.0770 
    107 H107       22.5739    1.9632   -7.3805 H         1 UNK         0.0814 
    108 H108       22.0643    3.6304   -7.1651 H         1 UNK         0.0814 
    109 H109       22.1178    2.5494   -5.7810 H         1 UNK         0.0814 
    110 H110       25.5136    1.7416   -7.9678 H         1 UNK         0.2983 
    111 H111       25.9045    3.7047  -10.1594 H         1 UNK         0.0947 
    112 H112       26.6913    0.7463   -9.9365 H         1 UNK         0.0806 
    113 H113       26.9175    1.7709  -11.3455 H         1 UNK         0.0806 
    114 H114       25.2938    1.3828  -10.8008 H         1 UNK         0.0806 
    115 H115       27.7396    1.6976   -7.8571 H         1 UNK         0.3000 
    116 H116       29.6114    1.8450   -6.7607 H         1 UNK         0.0850 
    117 H117       28.8722    4.1042   -6.0520 H         1 UNK         0.0810 
    118 H118       29.6747    4.8308   -7.4425 H         1 UNK         0.0810 
    119 H119       30.6207    4.0389   -6.1920 H         1 UNK         0.0810 
    120 H120       29.9202    3.3022   -9.9676 H         1 UNK         0.3040 
    121 H121       32.7447    3.0741  -10.2604 H         1 UNK         0.0766 
    122 H122       32.2329    3.3148  -12.7020 H         1 UNK         0.0812 
    123 H123       31.3385    4.4850  -11.7445 H         1 UNK         0.0812 
    124 H124       30.5239    3.0555  -12.3787 H         1 UNK         0.0812 
    125 H125       34.0291    1.4005  -10.6605 H         1 UNK         0.3205 
    126 H126       34.8718   -0.6217  -10.9428 H         1 UNK         0.0754 
    127 H127       34.1292   -1.9595  -12.8785 H         1 UNK         0.0769 
    128 H128       34.1239   -0.2565  -13.3018 H         1 UNK         0.0769 
    129 H129       32.6070   -1.0845  -12.9537 H         1 UNK         0.0769 
    130 H130       33.3083   -0.4050   -8.6440 H         1 UNK         0.2981 
    131 H131       31.6017   -2.6528   -8.2915 H         1 UNK         0.0541 
    132 H132       35.2382   -4.2773   -7.6472 H         1 UNK         0.3459 
    133 H133       35.0760   -2.7198   -8.4189 H         1 UNK         0.3459 
    134 H134       31.3005   -0.6921   -6.9102 H         1 UNK         0.0612 
    135 H135       31.6100   -2.0714   -5.9057 H         1 UNK         0.0612 
    136 H136       34.6407   -1.1502   -3.8693 H         1 UNK         0.0624 
    137 H137       33.8022   -2.5069   -4.5784 H         1 UNK         0.0624 
@<TRIPOS>BOND
     1    1    2 1    
     2    1   72 1    
     3    1   73 1    
     4    1   74 1    
     5    2    3 2    
     6    2    4 am   BACKBONE|DICT|INTERRES
     7    4    5 1    
     8    4   75 1    
     9    5    6 1    
    10    5   35 1    
    11    5   76 1    
    12    6    7 1    
    13    6   77 1    
    14    6   78 1    
    15    7    8 1    
    16    8    9 1    
    17    8   79 1    
    18    8   80 1    
    19    9   10 ar   
    20    9   14 ar   
    21   10   11 ar   
    22   10   81 1    
    23   11   12 ar   
    24   11   71 1    
    25   12   13 ar   
    26   12   82 1    
    27   13   14 ar   
    28   13   15 1    
    29   14   83 1    
    30   15   16 1    
    31   15   84 1    
    32   15   85 1    
    33   16   17 1    
    34   17   18 1    
    35   17   86 1    
    36   17   87 1    
    37   18   19 1    
    38   18   37 1    
    39   18   88 1    
    40   19   20 am   BACKBONE|DICT|INTERRES
    41   19   89 1    
    42   20   21 2    
    43   20   22 1    
    44   22   23 1    
    45   22   24 1    
    46   22   90 1    
    47   23   91 1    
    48   23   92 1    
    49   23   93 1    
    50   24   25 am   BACKBONE|DICT|INTERRES
    51   24   94 1    
    52   25   26 2    
    53   25   27 1    
    54   27   28 1    
    55   27   29 1    
    56   27   95 1    
    57   28   96 1    
    58   28   97 1    
    59   28   98 1    
    60   29   30 am   BACKBONE|DICT|INTERRES
    61   29   99 1    
    62   30   31 2    
    63   30   32 1    
    64   32   33 1    
    65   32   34 1    
    66   32  100 1    
    67   33  101 1    
    68   33  102 1    
    69   33  103 1    
    70   34   35 am   BACKBONE|DICT|INTERRES
    71   34  104 1    
    72   35   36 2    
    73   37   38 2    
    74   37   39 am   BACKBONE|DICT|INTERRES
    75   39   40 1    
    76   39  105 1    
    77   40   41 1    
    78   40   42 1    
    79   40  106 1    
    80   41  107 1    
    81   41  108 1    
    82   41  109 1    
    83   42   43 2    
    84   42   44 am   BACKBONE|DICT|INTERRES
    85   44   45 1    
    86   44  110 1    
    87   45   46 1    
    88   45   47 1    
    89   45  111 1    
    90   46  112 1    
    91   46  113 1    
    92   46  114 1    
    93   47   48 2    
    94   47   49 am   BACKBONE|DICT|INTERRES
    95   49   50 1    
    96   49  115 1    
    97   50   51 1    
    98   50   52 1    
    99   50  116 1    
   100   51  117 1    
   101   51  118 1    
   102   51  119 1    
   103   52   53 2    
   104   52   54 am   BACKBONE|DICT|INTERRES
   105   54   55 1    
   106   54  120 1    
   107   55   56 1    
   108   55   57 1    
   109   55  121 1    
   110   56  122 1    
   111   56  123 1    
   112   56  124 1    
   113   57   58 2    
   114   57   59 am   BACKBONE|DICT|INTERRES
   115   59   60 1    
   116   59  125 1    
   117   60   61 1    
   118   60   62 1    
   119   60  126 1    
   120   61  127 1    
   121   61  128 1    
   122   61  129 1    
   123   62   63 2    
   124   62   64 am   BACKBONE|DICT|INTERRES
   125   64   65 1    
   126   64  130 1    
   127   65   66 1    
   128   65   69 1    
   129   65  131 1    
   130   66   67 am   BACKBONE|DICT|INTERRES
   131   66   68 2    
   132   67  132 1    
   133   67  133 1    
   134   69   70 1    
   135   69  134 1    
   136   69  135 1    
   137   70   71 1    
   138   71  136 1    
   139   71  137 1    
@<TRIPOS>SUBSTRUCTURE
     1 UNK         1 GROUP             0       ****    0 ROOT    
