@<TRIPOS>MOLECULE
3R137
137   139    1
SMALL
USER_CHARGES


@<TRIPOS>ATOM
      1 CA         27.0038   -4.1653    2.4475 C.3       0 UNK        -0.2020 
      2 C          27.5599   -3.5570    1.1691 C.2       0 UNK         0.4855 
      3 O          28.1535   -2.4795    1.2113 O.2       0 UNK        -0.5197 
      4 N          27.3677   -4.2348    0.0283 N.am      1 UNK        -0.4892 
      5 CA         27.8372   -3.7952   -1.2952 C.3       1 UNK         0.0835 
      6 C6         28.1214   -5.0094   -2.2167 C.3       12 UNK        -0.0855 
      7 S7         29.4185   -4.8070   -3.4937 S.3       12 UNK        -0.2931 
      8 C8         30.8032   -3.9175   -2.6959 C.3       12 UNK         0.0378 
      9 C9         30.8463   -2.4468   -3.1015 C.ar      12 UNK        -0.0802 
     10 C10        31.2280   -2.1041   -4.4023 C.ar      12 UNK        -0.0944 
     11 C11        31.2890   -0.7657   -4.7968 C.ar      12 UNK        -0.0787 
     12 C12        30.9719    0.2374   -3.8791 C.ar      12 UNK        -0.0862 
     13 C13        30.5644   -0.0851   -2.5813 C.ar      12 UNK        -0.0733 
     14 C14        30.5272   -1.4295   -2.1930 C.ar      12 UNK        -0.0832 
     15 C15        30.1706    1.0075   -1.5880 C.3       12 UNK         0.0240 
     16 S16        29.0982    2.3123   -2.2953 S.3       12 UNK        -0.2522 
     17 C17        27.6947    1.3490   -2.9508 C.3       12 UNK        -0.0967 
     18 CA         27.6891    1.3134   -4.5062 C.3       5 UNK         0.0660 
     19 N          27.4513   -0.0329   -5.0256 N.am      5 UNK        -0.4015 
     20 C          27.5924   -0.4032   -6.3064 C.2       4 UNK         0.4946 
     21 O          28.0065    0.3337   -7.2042 O.2       4 UNK        -0.5353 
     22 CA         27.1700   -1.8395   -6.6484 C.3       4 UNK         0.0277 
     23 CB         28.3285   -2.8128   -6.3979 C.3       4 UNK        -0.1981 
     24 N          26.0012   -2.2715   -5.8780 N.am      4 UNK        -0.4209 
     25 C          24.7620   -1.7910   -6.0503 C.2       3 UNK         0.4942 
     26 O          24.4641   -0.9464   -6.8937 O.2       3 UNK        -0.5208 
     27 CA         23.6822   -2.3087   -5.0859 C.3       3 UNK         0.0250 
     28 CB         23.2438   -3.7325   -5.4651 C.3       3 UNK        -0.1990 
     29 N          24.1080   -2.2769   -3.6840 N.am      3 UNK        -0.4232 
     30 C          24.4191   -1.1575   -3.0157 C.2       2 UNK         0.4993 
     31 O          24.3832   -0.0311   -3.5065 O.2       2 UNK        -0.5286 
     32 CA         24.8853   -1.3125   -1.5625 C.3       2 UNK         0.0209 
     33 CB         23.6781   -1.3744   -0.6132 C.3       2 UNK        -0.1931 
     34 N          25.7678   -2.4550   -1.3059 N.am      2 UNK        -0.4546 
     35 C          26.9168   -2.7324   -1.9427 C.2       1 UNK         0.5154 
     36 O          27.2703   -2.1630   -2.9764 O.2       1 UNK        -0.5181 
     37 C          26.7122    2.3401   -5.1160 C.2       5 UNK         0.5014 
     38 O          27.1562    3.3707   -5.6235 O.2       5 UNK        -0.5248 
     39 N          25.4076    2.0256   -5.0933 N.am      6 UNK        -0.4434 
     40 CA         24.3351    2.8443   -5.6662 C.3       6 UNK         0.0363 
     41 CB         22.9703    2.2843   -5.2351 C.3       6 UNK        -0.1936 
     42 C          24.4082    2.9557   -7.1974 C.2       6 UNK         0.5081 
     43 O          24.1425    4.0307   -7.7356 O.2       6 UNK        -0.5248 
     44 N          24.7829    1.8592   -7.8717 N.am      7 UNK        -0.4718 
     45 CA         25.0022    1.8160   -9.3211 C.3       7 UNK         0.0273 
     46 CB         25.0654    0.3497   -9.7790 C.3       7 UNK        -0.1935 
     47 C          26.2683    2.5634   -9.7787 C.2       7 UNK         0.5018 
     48 O          26.3740    2.8710  -10.9667 O.2       7 UNK        -0.5186 
     49 N          27.2005    2.8159   -8.8459 N.am      8 UNK        -0.4240 
     50 CA         28.5415    3.3745   -9.0492 C.3       8 UNK         0.0235 
     51 CB         28.4690    4.8440   -9.5161 C.3       8 UNK        -0.2000 
     52 C          29.3881    2.4768   -9.9710 C.2       8 UNK         0.4941 
     53 O          29.9566    2.9519  -10.9573 O.2       8 UNK        -0.5273 
     54 N          29.4140    1.1782   -9.6428 N.am      9 UNK        -0.4262 
     55 CA         30.1370    0.1356  -10.3727 C.3       9 UNK         0.0264 
     56 CB         29.6139   -1.2308   -9.8959 C.3       9 UNK        -0.1955 
     57 C          31.6659    0.2342  -10.1994 C.2       9 UNK         0.5031 
     58 O          32.1565    1.0272   -9.3936 O.2       9 UNK        -0.5390 
     59 N          32.3948   -0.6119  -10.9418 N.am      10 UNK        -0.4204 
     60 CA         33.8570   -0.7465  -10.8763 C.3       10 UNK         0.0237 
     61 CB         34.3396   -1.5519  -12.0947 C.3       10 UNK        -0.1985 
     62 C          34.3799   -1.3811   -9.5697 C.2       10 UNK         0.4970 
     63 O          35.5741   -1.2696   -9.2903 O.2       10 UNK        -0.4914 
     64 N          33.4887   -2.0322   -8.8092 N.am      11 UNK        -0.4285 
     65 CA         33.7305   -2.6550   -7.4944 C.3       11 UNK         0.1007 
     66 C          34.5722   -3.9663   -7.5352 C.2       11 UNK         0.5703 
     67 N          34.8116   -4.5651   -8.6960 N.am      11 UNK        -0.7361 
     68 O          34.9877   -4.4720   -6.4951 O.2       11 UNK        -0.4986 
     69 C69        34.2370   -1.6623   -6.3994 C.3       12 UNK        -0.0947 
     70 S70        33.4429   -0.0147   -6.3628 S.3       12 UNK        -0.2240 
     71 C71        31.6698   -0.3931   -6.2187 C.3       12 UNK         0.0194 
     72 H72        26.5036   -5.1162    2.2646 H         1 UNK         0.0906 
     73 H73        27.8091   -4.3384    3.1609 H         1 UNK         0.0906 
     74 H74        26.2846   -3.4860    2.9045 H         1 UNK         0.0906 
     75 H75        26.8732   -5.1167    0.0519 H         1 UNK         0.3140 
     76 H76        28.7735   -3.2793   -1.1177 H         1 UNK         0.1085 
     77 H77        28.4472   -5.8567   -1.6107 H         1 UNK         0.0836 
     78 H78        27.2048   -5.3454   -2.7052 H         1 UNK         0.0836 
     79 H79        31.7332   -4.3876   -3.0193 H         1 UNK         0.0731 
     80 H80        30.7813   -4.0428   -1.6130 H         1 UNK         0.0731 
     81 H81        31.4689   -2.8855   -5.1091 H         1 UNK         0.1312 
     82 H82        31.0235    1.2732   -4.1848 H         1 UNK         0.1406 
     83 H83        30.2484   -1.6755   -1.1785 H         1 UNK         0.1631 
     84 H84        31.0788    1.4722   -1.2025 H         1 UNK         0.0717 
     85 H85        29.6567    0.5742   -0.7283 H         1 UNK         0.0717 
     86 H86        27.7605    0.3427   -2.5378 H         1 UNK         0.0934 
     87 H87        26.7670    1.7561   -2.5430 H         1 UNK         0.0934 
     88 H88        28.6814    1.5872   -4.8693 H         1 UNK         0.0739 
     89 H89        27.1794   -0.7410   -4.3498 H         1 UNK         0.3093 
     90 H90        26.9137   -1.8717   -7.7093 H         1 UNK         0.0818 
     91 H91        28.0607   -3.8352   -6.6642 H         1 UNK         0.0819 
     92 H92        29.2087   -2.5441   -6.9797 H         1 UNK         0.0819 
     93 H93        28.6230   -2.8031   -5.3495 H         1 UNK         0.0819 
     94 H94        26.1716   -2.9119   -5.1151 H         1 UNK         0.3041 
     95 H95        22.8160   -1.6503   -5.1823 H         1 UNK         0.0784 
     96 H96        22.9148   -3.7744   -6.5045 H         1 UNK         0.0793 
     97 H97        24.0545   -4.4532   -5.3505 H         1 UNK         0.0793 
     98 H98        22.4082   -4.0667   -4.8497 H         1 UNK         0.0793 
     99 H99        24.1778   -3.1597   -3.1993 H         1 UNK         0.3024 
    100 H100       25.4569   -0.4139   -1.3205 H         1 UNK         0.1171 
    101 H101       23.0122   -0.5245   -0.7717 H         1 UNK         0.0786 
    102 H102       23.9913   -1.3455    0.4307 H         1 UNK         0.0786 
    103 H103       23.0909   -2.2812   -0.7634 H         1 UNK         0.0786 
    104 H104       25.5724   -2.9899   -0.4723 H         1 UNK         0.2977 
    105 H105       25.1119    1.1728   -4.6170 H         1 UNK         0.3127 
    106 H106       24.4340    3.8521   -5.2575 H         1 UNK         0.0770 
    107 H107       22.8289    1.2596   -5.5820 H         1 UNK         0.0814 
    108 H108       22.1544    2.8840   -5.6408 H         1 UNK         0.0814 
    109 H109       22.8662    2.2864   -4.1500 H         1 UNK         0.0814 
    110 H110       24.9093    0.9873   -7.3657 H         1 UNK         0.2983 
    111 H111       24.1494    2.2919   -9.8101 H         1 UNK         0.0947 
    112 H112       25.2044    0.2806  -10.8588 H         1 UNK         0.0806 
    113 H113       24.1448   -0.1818   -9.5374 H         1 UNK         0.0806 
    114 H114       25.8937   -0.1814   -9.3085 H         1 UNK         0.0806 
    115 H115       27.0096    2.4908   -7.9062 H         1 UNK         0.3000 
    116 H116       29.0290    3.3611   -8.0728 H         1 UNK         0.0850 
    117 H117       29.4650    5.2858   -9.5624 H         1 UNK         0.0810 
    118 H118       27.8772    5.4480   -8.8283 H         1 UNK         0.0810 
    119 H119       28.0276    4.9357  -10.5089 H         1 UNK         0.0810 
    120 H120       28.9270    0.8873   -8.7975 H         1 UNK         0.3040 
    121 H121       29.9100    0.2482  -11.4350 H         1 UNK         0.0766 
    122 H122       28.5295   -1.2954   -9.9911 H         1 UNK         0.0812 
    123 H123       29.8657   -1.4056   -8.8511 H         1 UNK         0.0812 
    124 H124       30.0339   -2.0512  -10.4784 H         1 UNK         0.0812 
    125 H125       31.9171   -1.2201  -11.5920 H         1 UNK         0.3205 
    126 H126       34.2880    0.2551  -10.9376 H         1 UNK         0.0754 
    127 H127       35.4268   -1.6437  -12.0978 H         1 UNK         0.0769 
    128 H128       34.0571   -1.0661  -13.0290 H         1 UNK         0.0769 
    129 H129       33.9277   -2.5619  -12.1021 H         1 UNK         0.0769 
    130 H130       32.5420   -2.0929   -9.1489 H         1 UNK         0.2981 
    131 H131       32.7481   -3.0008   -7.1754 H         1 UNK         0.0541 
    132 H132       34.4731   -4.1674   -9.5567 H         1 UNK         0.3459 
    133 H133       35.3471   -5.4188   -8.7089 H         1 UNK         0.3459 
    134 H134       34.1213   -2.1070   -5.4096 H         1 UNK         0.0612 
    135 H135       35.3075   -1.4908   -6.5236 H         1 UNK         0.0612 
    136 H136       31.1043    0.4880   -6.5269 H         1 UNK         0.0624 
    137 H137       31.3850   -1.1787   -6.9165 H         1 UNK         0.0624 
@<TRIPOS>BOND
     1    1    2 1    
     2    1   72 1    
     3    1   73 1    
     4    1   74 1    
     5    2    3 2    
     6    2    4 am   BACKBONE|DICT|INTERRES
     7    4    5 1    
     8    4   75 1    
     9    5    6 1    
    10    5   35 1    
    11    5   76 1    
    12    6    7 1    
    13    6   77 1    
    14    6   78 1    
    15    7    8 1    
    16    8    9 1    
    17    8   79 1    
    18    8   80 1    
    19    9   10 ar   
    20    9   14 ar   
    21   10   11 ar   
    22   10   81 1    
    23   11   12 ar   
    24   11   71 1    
    25   12   13 ar   
    26   12   82 1    
    27   13   14 ar   
    28   13   15 1    
    29   14   83 1    
    30   15   16 1    
    31   15   84 1    
    32   15   85 1    
    33   16   17 1    
    34   17   18 1    
    35   17   86 1    
    36   17   87 1    
    37   18   19 1    
    38   18   37 1    
    39   18   88 1    
    40   19   20 am   BACKBONE|DICT|INTERRES
    41   19   89 1    
    42   20   21 2    
    43   20   22 1    
    44   22   23 1    
    45   22   24 1    
    46   22   90 1    
    47   23   91 1    
    48   23   92 1    
    49   23   93 1    
    50   24   25 am   BACKBONE|DICT|INTERRES
    51   24   94 1    
    52   25   26 2    
    53   25   27 1    
    54   27   28 1    
    55   27   29 1    
    56   27   95 1    
    57   28   96 1    
    58   28   97 1    
    59   28   98 1    
    60   29   30 am   BACKBONE|DICT|INTERRES
    61   29   99 1    
    62   30   31 2    
    63   30   32 1    
    64   32   33 1    
    65   32   34 1    
    66   32  100 1    
    67   33  101 1    
    68   33  102 1    
    69   33  103 1    
    70   34   35 am   BACKBONE|DICT|INTERRES
    71   34  104 1    
    72   35   36 2    
    73   37   38 2    
    74   37   39 am   BACKBONE|DICT|INTERRES
    75   39   40 1    
    76   39  105 1    
    77   40   41 1    
    78   40   42 1    
    79   40  106 1    
    80   41  107 1    
    81   41  108 1    
    82   41  109 1    
    83   42   43 2    
    84   42   44 am   BACKBONE|DICT|INTERRES
    85   44   45 1    
    86   44  110 1    
    87   45   46 1    
    88   45   47 1    
    89   45  111 1    
    90   46  112 1    
    91   46  113 1    
    92   46  114 1    
    93   47   48 2    
    94   47   49 am   BACKBONE|DICT|INTERRES
    95   49   50 1    
    96   49  115 1    
    97   50   51 1    
    98   50   52 1    
    99   50  116 1    
   100   51  117 1    
   101   51  118 1    
   102   51  119 1    
   103   52   53 2    
   104   52   54 am   BACKBONE|DICT|INTERRES
   105   54   55 1    
   106   54  120 1    
   107   55   56 1    
   108   55   57 1    
   109   55  121 1    
   110   56  122 1    
   111   56  123 1    
   112   56  124 1    
   113   57   58 2    
   114   57   59 am   BACKBONE|DICT|INTERRES
   115   59   60 1    
   116   59  125 1    
   117   60   61 1    
   118   60   62 1    
   119   60  126 1    
   120   61  127 1    
   121   61  128 1    
   122   61  129 1    
   123   62   63 2    
   124   62   64 am   BACKBONE|DICT|INTERRES
   125   64   65 1    
   126   64  130 1    
   127   65   66 1    
   128   65   69 1    
   129   65  131 1    
   130   66   67 am   BACKBONE|DICT|INTERRES
   131   66   68 2    
   132   67  132 1    
   133   67  133 1    
   134   69   70 1    
   135   69  134 1    
   136   69  135 1    
   137   70   71 1    
   138   71  136 1    
   139   71  137 1    
@<TRIPOS>SUBSTRUCTURE
     1 UNK         1 GROUP             0       ****    0 ROOT    
