@<TRIPOS>MOLECULE
3R137
137   139    1
SMALL
USER_CHARGES


@<TRIPOS>ATOM
      1 CA         29.4575    1.0385   -2.4369 C.3       0 UNK        -0.2020 
      2 C          28.7146   -0.2833   -2.5410 C.2       0 UNK         0.4855 
      3 O          28.1390   -0.5869   -3.5866 O.2       0 UNK        -0.5197 
      4 N          28.7245   -1.0577   -1.4503 N.am      1 UNK        -0.4892 
      5 CA         28.0339   -2.3407   -1.3021 C.3       1 UNK         0.0835 
      6 C6         28.7888   -3.2411   -0.2842 C.3       12 UNK        -0.0855 
      7 S7         28.5113   -5.0244   -0.5608 S.3       12 UNK        -0.2931 
      8 C8         30.0516   -5.5112   -1.4026 C.3       12 UNK         0.0378 
      9 C9         30.1749   -4.8841   -2.7846 C.ar      12 UNK        -0.0802 
     10 C10        31.1706   -3.9373   -3.0504 C.ar      12 UNK        -0.0944 
     11 C11        31.3095   -3.3911   -4.3314 C.ar      12 UNK        -0.0787 
     12 C12        30.4494   -3.8107   -5.3493 C.ar      12 UNK        -0.0862 
     13 C13        29.4119   -4.7094   -5.0810 C.ar      12 UNK        -0.0733 
     14 C14        29.2923   -5.2583   -3.8021 C.ar      12 UNK        -0.0832 
     15 C15        28.3983   -5.0591   -6.1613 C.3       12 UNK         0.0240 
     16 S16        26.9853   -3.9047   -6.1416 S.3       12 UNK        -0.2522 
     17 C17        27.8127   -2.3764   -6.6839 C.3       12 UNK        -0.0967 
     18 CA         26.8656   -1.1791   -6.9059 C.3       5 UNK         0.0660 
     19 N          26.1535   -0.8121   -5.6805 N.am      5 UNK        -0.4015 
     20 C          25.2037    0.1251   -5.5691 C.2       4 UNK         0.4946 
     21 O          24.8182    0.8289   -6.5055 O.2       4 UNK        -0.5353 
     22 CA         24.5876    0.2786   -4.1652 C.3       4 UNK         0.0277 
     23 CB         23.4525    1.3233   -4.1094 C.3       4 UNK        -0.1981 
     24 N          24.1489   -1.0120   -3.6151 N.am      4 UNK        -0.4209 
     25 C          23.2369   -1.8511   -4.1397 C.2       3 UNK         0.4942 
     26 O          22.5734   -1.5969   -5.1458 O.2       3 UNK        -0.5208 
     27 CA         23.0266   -3.2182   -3.4567 C.3       3 UNK         0.0250 
     28 CB         23.3566   -4.3690   -4.4233 C.3       3 UNK        -0.1990 
     29 N          23.8205   -3.3920   -2.2398 N.am      3 UNK        -0.4232 
     30 C          23.4736   -2.9471   -1.0254 C.2       2 UNK         0.4993 
     31 O          22.4051   -2.3881   -0.7771 O.2       2 UNK        -0.5286 
     32 CA         24.5087   -3.1363    0.0972 C.3       2 UNK         0.0209 
     33 CB         24.2220   -4.4259    0.8833 C.3       2 UNK        -0.1931 
     34 N          25.9009   -3.1567   -0.3712 N.am      2 UNK        -0.4546 
     35 C          26.5385   -2.1307   -0.9520 C.2       1 UNK         0.5154 
     36 O          25.9751   -1.0648   -1.2141 O.2       1 UNK        -0.5181 
     37 C          27.6927   -0.0174   -7.4813 C.2       5 UNK         0.5014 
     38 O          27.8257    0.0699   -8.7029 O.2       5 UNK        -0.5248 
     39 N          28.2467    0.8375   -6.6058 N.am      6 UNK        -0.4434 
     40 CA         29.1578    1.9411   -6.9383 C.3       6 UNK         0.0363 
     41 CB         29.5776    2.6739   -5.6578 C.3       6 UNK        -0.1936 
     42 C          28.6418    2.9467   -7.9839 C.2       6 UNK         0.5081 
     43 O          29.4587    3.6109   -8.6193 O.2       6 UNK        -0.5248 
     44 N          27.3194    3.0067   -8.1930 N.am      7 UNK        -0.4718 
     45 CA         26.6770    3.7506   -9.2805 C.3       7 UNK         0.0273 
     46 CB         25.1520    3.6659   -9.1086 C.3       7 UNK        -0.1935 
     47 C          27.0878    3.2777  -10.6917 C.2       7 UNK         0.5018 
     48 O          27.0185    4.0764  -11.6270 O.2       7 UNK        -0.5186 
     49 N          27.5103    2.0112  -10.8199 N.am      8 UNK        -0.4240 
     50 CA         28.0178    1.4144  -12.0572 C.3       8 UNK         0.0235 
     51 CB         27.0388    0.3296  -12.5365 C.3       8 UNK        -0.2000 
     52 C          29.4254    0.8240  -11.8757 C.2       8 UNK         0.4941 
     53 O          30.2538    0.9632  -12.7758 O.2       8 UNK        -0.5273 
     54 N          29.6778    0.1681  -10.7340 N.am      9 UNK        -0.4262 
     55 CA         30.9163   -0.5616  -10.4442 C.3       9 UNK         0.0264 
     56 CB         30.6123   -1.6643   -9.4142 C.3       9 UNK        -0.1955 
     57 C          32.0649    0.3219   -9.9302 C.2       9 UNK         0.5031 
     58 O          33.1878   -0.1752   -9.8289 O.2       9 UNK        -0.5390 
     59 N          31.7743    1.5787   -9.5610 N.am      10 UNK        -0.4204 
     60 CA         32.6531    2.5820   -8.9377 C.3       10 UNK         0.0237 
     61 CB         33.8459    2.9392   -9.8468 C.3       10 UNK        -0.1985 
     62 C          33.1261    2.2336   -7.5118 C.2       10 UNK         0.4970 
     63 O          33.1026    3.1116   -6.6495 O.2       10 UNK        -0.4914 
     64 N          33.5508    0.9822   -7.2933 N.am      11 UNK        -0.4285 
     65 CA         34.1138    0.4407   -6.0427 C.3       11 UNK         0.1007 
     66 C          35.4666    1.0892   -5.6088 C.2       11 UNK         0.5703 
     67 N          36.1982    1.7495   -6.4993 N.am      11 UNK        -0.7361 
     68 O          35.8850    0.9639   -4.4600 O.2       11 UNK        -0.4986 
     69 C69        33.0751    0.3630   -4.8844 C.3       12 UNK        -0.0947 
     70 S70        31.6942   -0.7787   -5.2313 S.3       12 UNK        -0.2240 
     71 C71        32.3883   -2.3523   -4.6153 C.3       12 UNK         0.0194 
     72 H72        29.6626    1.3076   -1.4011 H         1 UNK         0.0906 
     73 H73        28.8650    1.8395   -2.8768 H         1 UNK         0.0906 
     74 H74        30.4088    0.9731   -2.9630 H         1 UNK         0.0906 
     75 H75        29.1858   -0.7182   -0.6187 H         1 UNK         0.3140 
     76 H76        28.0560   -2.8342   -2.2771 H         1 UNK         0.1085 
     77 H77        29.8631   -3.0598   -0.3495 H         1 UNK         0.0836 
     78 H78        28.5211   -2.9900    0.7443 H         1 UNK         0.0836 
     79 H79        30.9061   -5.2524   -0.7753 H         1 UNK         0.0731 
     80 H80        30.0679   -6.5973   -1.5038 H         1 UNK         0.0731 
     81 H81        31.8416   -3.6297   -2.2601 H         1 UNK         0.1312 
     82 H82        30.5571   -3.3924   -6.3406 H         1 UNK         0.1406 
     83 H83        28.5008   -5.9648   -3.5909 H         1 UNK         0.1631 
     84 H84        28.8696   -5.0488   -7.1454 H         1 UNK         0.0717 
     85 H85        28.0275   -6.0742   -6.0114 H         1 UNK         0.0717 
     86 H86        28.5551   -2.1030   -5.9327 H         1 UNK         0.0934 
     87 H87        28.3601   -2.6082   -7.5997 H         1 UNK         0.0934 
     88 H88        26.1184   -1.4534   -7.6532 H         1 UNK         0.0739 
     89 H89        26.4764   -1.2702   -4.8372 H         1 UNK         0.3093 
     90 H90        25.3905    0.6310   -3.5152 H         1 UNK         0.0818 
     91 H91        23.0573    1.4250   -3.0988 H         1 UNK         0.0819 
     92 H92        23.8133    2.3055   -4.4172 H         1 UNK         0.0819 
     93 H93        22.6249    1.0620   -4.7693 H         1 UNK         0.0819 
     94 H94        24.6313   -1.2936   -2.7679 H         1 UNK         0.3041 
     95 H95        21.9670   -3.2871   -3.2009 H         1 UNK         0.0784 
     96 H96        22.7612   -4.3015   -5.3349 H         1 UNK         0.0793 
     97 H97        24.4055   -4.3587   -4.7188 H         1 UNK         0.0793 
     98 H98        23.1442   -5.3388   -3.9730 H         1 UNK         0.0793 
     99 H99        24.7155   -3.8486   -2.3411 H         1 UNK         0.3024 
    100 H100       24.4006   -2.2876    0.7767 H         1 UNK         0.1171 
    101 H101       24.8874   -4.5241    1.7413 H         1 UNK         0.0786 
    102 H102       23.2003   -4.4315    1.2661 H         1 UNK         0.0786 
    103 H103       24.3423   -5.3137    0.2611 H         1 UNK         0.0786 
    104 H104       26.4327   -4.0014   -0.1970 H         1 UNK         0.2977 
    105 H105       28.1042    0.6494   -5.6209 H         1 UNK         0.3127 
    106 H106       30.0521    1.4819   -7.3615 H         1 UNK         0.0770 
    107 H107       28.7169    3.0423   -5.0990 H         1 UNK         0.0814 
    108 H108       30.2140    3.5309   -5.8846 H         1 UNK         0.0814 
    109 H109       30.1584    2.0187   -5.0122 H         1 UNK         0.0814 
    110 H110       26.7206    2.4144   -7.6329 H         1 UNK         0.2983 
    111 H111       26.9782    4.7966   -9.1902 H         1 UNK         0.0947 
    112 H112       24.6377    4.2244   -9.8920 H         1 UNK         0.0806 
    113 H113       24.8359    4.0847   -8.1529 H         1 UNK         0.0806 
    114 H114       24.7981    2.6348   -9.1554 H         1 UNK         0.0806 
    115 H115       27.5249    1.4234   -9.9905 H         1 UNK         0.3000 
    116 H116       28.0923    2.1725  -12.8400 H         1 UNK         0.0850 
    117 H117       26.0569    0.7519  -12.7503 H         1 UNK         0.0810 
    118 H118       26.9094   -0.4563  -11.7910 H         1 UNK         0.0810 
    119 H119       27.3952   -0.1426  -13.4531 H         1 UNK         0.0810 
    120 H120       28.9404    0.0873  -10.0341 H         1 UNK         0.3040 
    121 H121       31.2610   -1.0415  -11.3627 H         1 UNK         0.0766 
    122 H122       29.7978   -2.3079   -9.7469 H         1 UNK         0.0812 
    123 H123       30.3405   -1.2458   -8.4445 H         1 UNK         0.0812 
    124 H124       31.4832   -2.3019   -9.2560 H         1 UNK         0.0812 
    125 H125       30.8171    1.8813   -9.6829 H         1 UNK         0.3205 
    126 H126       32.0476    3.4842   -8.8452 H         1 UNK         0.0754 
    127 H127       34.5263    2.0987   -9.9852 H         1 UNK         0.0769 
    128 H128       34.4268    3.7582   -9.4205 H         1 UNK         0.0769 
    129 H129       33.5081    3.2613  -10.8319 H         1 UNK         0.0769 
    130 H130       33.5495    0.3525   -8.0923 H         1 UNK         0.2981 
    131 H131       34.3917   -0.5855   -6.2841 H         1 UNK         0.0541 
    132 H132       37.0760    2.1536   -6.2133 H         1 UNK         0.3459 
    133 H133       35.8826    1.8459   -7.4505 H         1 UNK         0.3459 
    134 H134       32.6597    1.3496   -4.6768 H         1 UNK         0.0612 
    135 H135       33.5444    0.0451   -3.9525 H         1 UNK         0.0612 
    136 H136       32.9680   -2.1633   -3.7109 H         1 UNK         0.0624 
    137 H137       33.0860   -2.7479   -5.3545 H         1 UNK         0.0624 
@<TRIPOS>BOND
     1    1    2 1    
     2    1   72 1    
     3    1   73 1    
     4    1   74 1    
     5    2    3 2    
     6    2    4 am   BACKBONE|DICT|INTERRES
     7    4    5 1    
     8    4   75 1    
     9    5    6 1    
    10    5   35 1    
    11    5   76 1    
    12    6    7 1    
    13    6   77 1    
    14    6   78 1    
    15    7    8 1    
    16    8    9 1    
    17    8   79 1    
    18    8   80 1    
    19    9   10 ar   
    20    9   14 ar   
    21   10   11 ar   
    22   10   81 1    
    23   11   12 ar   
    24   11   71 1    
    25   12   13 ar   
    26   12   82 1    
    27   13   14 ar   
    28   13   15 1    
    29   14   83 1    
    30   15   16 1    
    31   15   84 1    
    32   15   85 1    
    33   16   17 1    
    34   17   18 1    
    35   17   86 1    
    36   17   87 1    
    37   18   19 1    
    38   18   37 1    
    39   18   88 1    
    40   19   20 am   BACKBONE|DICT|INTERRES
    41   19   89 1    
    42   20   21 2    
    43   20   22 1    
    44   22   23 1    
    45   22   24 1    
    46   22   90 1    
    47   23   91 1    
    48   23   92 1    
    49   23   93 1    
    50   24   25 am   BACKBONE|DICT|INTERRES
    51   24   94 1    
    52   25   26 2    
    53   25   27 1    
    54   27   28 1    
    55   27   29 1    
    56   27   95 1    
    57   28   96 1    
    58   28   97 1    
    59   28   98 1    
    60   29   30 am   BACKBONE|DICT|INTERRES
    61   29   99 1    
    62   30   31 2    
    63   30   32 1    
    64   32   33 1    
    65   32   34 1    
    66   32  100 1    
    67   33  101 1    
    68   33  102 1    
    69   33  103 1    
    70   34   35 am   BACKBONE|DICT|INTERRES
    71   34  104 1    
    72   35   36 2    
    73   37   38 2    
    74   37   39 am   BACKBONE|DICT|INTERRES
    75   39   40 1    
    76   39  105 1    
    77   40   41 1    
    78   40   42 1    
    79   40  106 1    
    80   41  107 1    
    81   41  108 1    
    82   41  109 1    
    83   42   43 2    
    84   42   44 am   BACKBONE|DICT|INTERRES
    85   44   45 1    
    86   44  110 1    
    87   45   46 1    
    88   45   47 1    
    89   45  111 1    
    90   46  112 1    
    91   46  113 1    
    92   46  114 1    
    93   47   48 2    
    94   47   49 am   BACKBONE|DICT|INTERRES
    95   49   50 1    
    96   49  115 1    
    97   50   51 1    
    98   50   52 1    
    99   50  116 1    
   100   51  117 1    
   101   51  118 1    
   102   51  119 1    
   103   52   53 2    
   104   52   54 am   BACKBONE|DICT|INTERRES
   105   54   55 1    
   106   54  120 1    
   107   55   56 1    
   108   55   57 1    
   109   55  121 1    
   110   56  122 1    
   111   56  123 1    
   112   56  124 1    
   113   57   58 2    
   114   57   59 am   BACKBONE|DICT|INTERRES
   115   59   60 1    
   116   59  125 1    
   117   60   61 1    
   118   60   62 1    
   119   60  126 1    
   120   61  127 1    
   121   61  128 1    
   122   61  129 1    
   123   62   63 2    
   124   62   64 am   BACKBONE|DICT|INTERRES
   125   64   65 1    
   126   64  130 1    
   127   65   66 1    
   128   65   69 1    
   129   65  131 1    
   130   66   67 am   BACKBONE|DICT|INTERRES
   131   66   68 2    
   132   67  132 1    
   133   67  133 1    
   134   69   70 1    
   135   69  134 1    
   136   69  135 1    
   137   70   71 1    
   138   71  136 1    
   139   71  137 1    
@<TRIPOS>SUBSTRUCTURE
     1 UNK         1 GROUP             0       ****    0 ROOT    
