@<TRIPOS>MOLECULE
3R137
137   139    1
SMALL
USER_CHARGES


@<TRIPOS>ATOM
      1 CA         29.9648   -6.4788   -8.0960 C.3       0 UNK        -0.2020 
      2 C          29.8715   -6.5715   -6.5809 C.2       0 UNK         0.4855 
      3 O          29.6326   -7.6553   -6.0480 O.2       0 UNK        -0.5197 
      4 N          30.0456   -5.4423   -5.8827 N.am      1 UNK        -0.4892 
      5 CA         29.8772   -5.3196   -4.4301 C.3       1 UNK         0.0835 
      6 C6         30.5390   -4.0162   -3.9187 C.3       12 UNK        -0.0855 
      7 S7         30.9938   -4.0805   -2.1529 S.3       12 UNK        -0.2931 
      8 C8         29.6987   -3.0256   -1.4068 C.3       12 UNK         0.0378 
      9 C9         29.7870   -1.5233   -1.6962 C.ar      12 UNK        -0.0802 
     10 C10        30.7870   -0.9483   -2.4927 C.ar      12 UNK        -0.0944 
     11 C11        30.7990    0.4257   -2.7464 C.ar      12 UNK        -0.0787 
     12 C12        29.8177    1.2431   -2.1804 C.ar      12 UNK        -0.0862 
     13 C13        28.8248    0.6893   -1.3688 C.ar      12 UNK        -0.0733 
     14 C14        28.8123   -0.6898   -1.1382 C.ar      12 UNK        -0.0832 
     15 C15        27.7704    1.5739   -0.7236 C.3       12 UNK         0.0240 
     16 S16        26.2247    1.5818   -1.6807 S.3       12 UNK        -0.2522 
     17 C17        26.5630    2.8284   -2.9716 C.3       12 UNK        -0.0967 
     18 CA         26.6362    2.2429   -4.4059 C.3       5 UNK         0.0660 
     19 N          25.4767    1.4014   -4.7281 N.am      5 UNK        -0.4015 
     20 C          25.2726    0.7384   -5.8743 C.2       4 UNK         0.4946 
     21 O          26.0538    0.7664   -6.8284 O.2       4 UNK        -0.5353 
     22 CA         23.9706   -0.0840   -5.9594 C.3       4 UNK         0.0277 
     23 CB         23.7358   -0.6813   -7.3590 C.3       4 UNK        -0.1981 
     24 N          23.9565   -1.1684   -4.9776 N.am      4 UNK        -0.4209 
     25 C          23.7404   -1.0355   -3.6614 C.2       3 UNK         0.4942 
     26 O          23.4411    0.0381   -3.1369 O.2       3 UNK        -0.5208 
     27 CA         23.8818   -2.2935   -2.7782 C.3       3 UNK         0.0250 
     28 CB         22.5211   -2.6906   -2.1814 C.3       3 UNK        -0.1990 
     29 N          24.4543   -3.4543   -3.4726 N.am      3 UNK        -0.4232 
     30 C          25.7262   -3.5514   -3.8829 C.2       2 UNK         0.4993 
     31 O          26.5757   -2.6810   -3.6835 O.2       2 UNK        -0.5286 
     32 CA         26.0700   -4.7987   -4.7145 C.3       2 UNK         0.0209 
     33 CB         25.3856   -4.7394   -6.0929 C.3       2 UNK        -0.1931 
     34 N          27.5111   -4.9153   -4.9241 N.am      2 UNK        -0.4546 
     35 C          28.3868   -5.3912   -4.0293 C.2       1 UNK         0.5154 
     36 O          28.0588   -5.8872   -2.9497 O.2       1 UNK        -0.5181 
     37 C          26.8186    3.3866   -5.4249 C.2       5 UNK         0.5014 
     38 O          27.9365    3.6362   -5.8759 O.2       5 UNK        -0.5248 
     39 N          25.7022    4.0329   -5.7959 N.am      6 UNK        -0.4434 
     40 CA         25.6401    5.1338   -6.7619 C.3       6 UNK         0.0363 
     41 CB         24.2463    5.7794   -6.6992 C.3       6 UNK        -0.1936 
     42 C          25.9743    4.7209   -8.2070 C.2       6 UNK         0.5081 
     43 O          26.3739    5.5778   -8.9953 O.2       6 UNK        -0.5248 
     44 N          25.8233    3.4287   -8.5316 N.am      7 UNK        -0.4718 
     45 CA         26.2136    2.8523   -9.8212 C.3       7 UNK         0.0273 
     46 CB         25.3383    1.6214  -10.1111 C.3       7 UNK        -0.1935 
     47 C          27.7059    2.4750   -9.8707 C.2       7 UNK         0.5018 
     48 O          28.1857    2.1104  -10.9448 O.2       7 UNK        -0.5186 
     49 N          28.4017    2.5529   -8.7233 N.am      8 UNK        -0.4240 
     50 CA         29.8057    2.1927   -8.5044 C.3       8 UNK         0.0235 
     51 CB         30.7431    3.1510   -9.2717 C.3       8 UNK        -0.2000 
     52 C          30.0857    0.7057   -8.7979 C.2       8 UNK         0.4941 
     53 O          31.1078    0.3891   -9.4107 O.2       8 UNK        -0.5273 
     54 N          29.1619   -0.1694   -8.3669 N.am      9 UNK        -0.4262 
     55 CA         29.1292   -1.6195   -8.5944 C.3       9 UNK         0.0264 
     56 CB         27.8524   -2.1847   -7.9433 C.3       9 UNK        -0.1955 
     57 C          30.3913   -2.3595   -8.1057 C.2       9 UNK         0.5031 
     58 O          30.3961   -2.9009   -6.9995 O.2       9 UNK        -0.5390 
     59 N          31.4311   -2.3660   -8.9508 N.am      10 UNK        -0.4204 
     60 CA         32.7934   -2.8549   -8.7029 C.3       10 UNK         0.0237 
     61 CB         32.8177   -4.3748   -8.4368 C.3       10 UNK        -0.1985 
     62 C          33.5433   -2.0402   -7.6287 C.2       10 UNK         0.4970 
     63 O          34.4043   -2.5888   -6.9384 O.2       10 UNK        -0.4914 
     64 N          33.2250   -0.7428   -7.5220 N.am      11 UNK        -0.4285 
     65 CA         33.8809    0.1999   -6.5993 C.3       11 UNK         0.1007 
     66 C          35.2576    0.7268   -7.0992 C.2       11 UNK         0.5703 
     67 N          35.6536    0.4890   -8.3446 N.am      11 UNK        -0.7361 
     68 O          35.9873    1.3553   -6.3361 O.2       11 UNK        -0.4986 
     69 C69        32.9455    1.3727   -6.2067 C.3       12 UNK        -0.0947 
     70 S70        31.4206    0.8010   -5.3908 S.3       12 UNK        -0.2240 
     71 C71        31.8707    1.0155   -3.6455 C.3       12 UNK         0.0194 
     72 H72        29.9641   -5.4451   -8.4399 H         1 UNK         0.0906 
     73 H73        30.8781   -6.9588   -8.4461 H         1 UNK         0.0906 
     74 H74        29.1162   -6.9842   -8.5563 H         1 UNK         0.0906 
     75 H75        30.2388   -4.5631   -6.3668 H         1 UNK         0.3140 
     76 H76        30.3818   -6.1716   -3.9687 H         1 UNK         0.1085 
     77 H77        31.4673   -3.8358   -4.4640 H         1 UNK         0.0836 
     78 H78        29.9109   -3.1470   -4.1278 H         1 UNK         0.0836 
     79 H79        29.7367   -3.1692   -0.3261 H         1 UNK         0.0731 
     80 H80        28.7219   -3.3896   -1.7292 H         1 UNK         0.0731 
     81 H81        31.5565   -1.5590   -2.9414 H         1 UNK         0.1312 
     82 H82        29.8271    2.3071   -2.3730 H         1 UNK         0.1406 
     83 H83        28.0332   -1.1171   -0.5210 H         1 UNK         0.1631 
     84 H84        28.1394    2.5922   -0.5924 H         1 UNK         0.0717 
     85 H85        27.5539    1.2039    0.2797 H         1 UNK         0.0717 
     86 H86        25.7710    3.5770   -2.9022 H         1 UNK         0.0934 
     87 H87        27.4887    3.3563   -2.7355 H         1 UNK         0.0934 
     88 H88        27.5191    1.6025   -4.4689 H         1 UNK         0.0739 
     89 H89        24.8102    1.2511   -3.9761 H         1 UNK         0.3093 
     90 H90        23.1411    0.5931   -5.7441 H         1 UNK         0.0818 
     91 H91        22.8062   -1.2492   -7.3982 H         1 UNK         0.0819 
     92 H92        23.6594    0.1066   -8.1083 H         1 UNK         0.0819 
     93 H93        24.5474   -1.3446   -7.6602 H         1 UNK         0.0819 
     94 H94        24.2224   -2.0801   -5.3160 H         1 UNK         0.3041 
     95 H95        24.5514   -2.0285   -1.9569 H         1 UNK         0.0784 
     96 H96        22.0837   -1.8637   -1.6198 H         1 UNK         0.0793 
     97 H97        21.8064   -2.9716   -2.9560 H         1 UNK         0.0793 
     98 H98        22.6187   -3.5295   -1.4919 H         1 UNK         0.0793 
     99 H99        23.8158   -4.2094   -3.6807 H         1 UNK         0.3024 
    100 H100       25.7180   -5.6819   -4.1758 H         1 UNK         0.1171 
    101 H101       25.6522   -5.6023   -6.7039 H         1 UNK         0.0786 
    102 H102       24.2990   -4.7416   -5.9994 H         1 UNK         0.0786 
    103 H103       25.6638   -3.8413   -6.6459 H         1 UNK         0.0786 
    104 H104       27.8842   -4.4999   -5.7643 H         1 UNK         0.2977 
    105 H105       24.8267    3.7491   -5.3801 H         1 UNK         0.3127 
    106 H106       26.3774    5.8816   -6.4616 H         1 UNK         0.0770 
    107 H107       23.4609    5.0737   -6.9730 H         1 UNK         0.0814 
    108 H108       24.1770    6.6249   -7.3853 H         1 UNK         0.0814 
    109 H109       24.0273    6.1581   -5.7007 H         1 UNK         0.0814 
    110 H110       25.5334    2.7728   -7.8177 H         1 UNK         0.2983 
    111 H111       26.0361    3.5865  -10.6104 H         1 UNK         0.0947 
    112 H112       25.5537    0.8026   -9.4247 H         1 UNK         0.0806 
    113 H113       25.5174    1.2480  -11.1202 H         1 UNK         0.0806 
    114 H114       24.2767    1.8577  -10.0380 H         1 UNK         0.0806 
    115 H115       27.9106    2.8709   -7.8953 H         1 UNK         0.3000 
    116 H116       29.9892    2.3376   -7.4396 H         1 UNK         0.0850 
    117 H117       30.5383    4.1911   -9.0184 H         1 UNK         0.0810 
    118 H118       30.6397    3.0416  -10.3515 H         1 UNK         0.0810 
    119 H119       31.7885    2.9598   -9.0297 H         1 UNK         0.0810 
    120 H120       28.3704    0.2062   -7.8603 H         1 UNK         0.3040 
    121 H121       29.0484   -1.7787   -9.6714 H         1 UNK         0.0766 
    122 H122       27.7793   -3.2622   -8.0958 H         1 UNK         0.0812 
    123 H123       26.9569   -1.7353   -8.3728 H         1 UNK         0.0812 
    124 H124       27.8321   -2.0019   -6.8674 H         1 UNK         0.0812 
    125 H125       31.3257   -1.8064   -9.7889 H         1 UNK         0.3205 
    126 H126       33.3401   -2.6840   -9.6312 H         1 UNK         0.0754 
    127 H127       33.8413   -4.7508   -8.4171 H         1 UNK         0.0769 
    128 H128       32.2924   -4.9213   -9.2193 H         1 UNK         0.0769 
    129 H129       32.3659   -4.6269   -7.4778 H         1 UNK         0.0769 
    130 H130       32.5132   -0.3563   -8.1325 H         1 UNK         0.2981 
    131 H131       34.1023   -0.3442   -5.6790 H         1 UNK         0.0541 
    132 H132       36.5503    0.8322   -8.6509 H         1 UNK         0.3459 
    133 H133       35.0631   -0.0203   -8.9815 H         1 UNK         0.3459 
    134 H134       33.4539    2.0743   -5.5425 H         1 UNK         0.0612 
    135 H135       32.6663    1.9449   -7.0913 H         1 UNK         0.0612 
    136 H136       32.0118    2.0765   -3.4336 H         1 UNK         0.0624 
    137 H137       32.8267    0.5263   -3.4524 H         1 UNK         0.0624 
@<TRIPOS>BOND
     1    1    2 1    
     2    1   72 1    
     3    1   73 1    
     4    1   74 1    
     5    2    3 2    
     6    2    4 am   BACKBONE|DICT|INTERRES
     7    4    5 1    
     8    4   75 1    
     9    5    6 1    
    10    5   35 1    
    11    5   76 1    
    12    6    7 1    
    13    6   77 1    
    14    6   78 1    
    15    7    8 1    
    16    8    9 1    
    17    8   79 1    
    18    8   80 1    
    19    9   10 ar   
    20    9   14 ar   
    21   10   11 ar   
    22   10   81 1    
    23   11   12 ar   
    24   11   71 1    
    25   12   13 ar   
    26   12   82 1    
    27   13   14 ar   
    28   13   15 1    
    29   14   83 1    
    30   15   16 1    
    31   15   84 1    
    32   15   85 1    
    33   16   17 1    
    34   17   18 1    
    35   17   86 1    
    36   17   87 1    
    37   18   19 1    
    38   18   37 1    
    39   18   88 1    
    40   19   20 am   BACKBONE|DICT|INTERRES
    41   19   89 1    
    42   20   21 2    
    43   20   22 1    
    44   22   23 1    
    45   22   24 1    
    46   22   90 1    
    47   23   91 1    
    48   23   92 1    
    49   23   93 1    
    50   24   25 am   BACKBONE|DICT|INTERRES
    51   24   94 1    
    52   25   26 2    
    53   25   27 1    
    54   27   28 1    
    55   27   29 1    
    56   27   95 1    
    57   28   96 1    
    58   28   97 1    
    59   28   98 1    
    60   29   30 am   BACKBONE|DICT|INTERRES
    61   29   99 1    
    62   30   31 2    
    63   30   32 1    
    64   32   33 1    
    65   32   34 1    
    66   32  100 1    
    67   33  101 1    
    68   33  102 1    
    69   33  103 1    
    70   34   35 am   BACKBONE|DICT|INTERRES
    71   34  104 1    
    72   35   36 2    
    73   37   38 2    
    74   37   39 am   BACKBONE|DICT|INTERRES
    75   39   40 1    
    76   39  105 1    
    77   40   41 1    
    78   40   42 1    
    79   40  106 1    
    80   41  107 1    
    81   41  108 1    
    82   41  109 1    
    83   42   43 2    
    84   42   44 am   BACKBONE|DICT|INTERRES
    85   44   45 1    
    86   44  110 1    
    87   45   46 1    
    88   45   47 1    
    89   45  111 1    
    90   46  112 1    
    91   46  113 1    
    92   46  114 1    
    93   47   48 2    
    94   47   49 am   BACKBONE|DICT|INTERRES
    95   49   50 1    
    96   49  115 1    
    97   50   51 1    
    98   50   52 1    
    99   50  116 1    
   100   51  117 1    
   101   51  118 1    
   102   51  119 1    
   103   52   53 2    
   104   52   54 am   BACKBONE|DICT|INTERRES
   105   54   55 1    
   106   54  120 1    
   107   55   56 1    
   108   55   57 1    
   109   55  121 1    
   110   56  122 1    
   111   56  123 1    
   112   56  124 1    
   113   57   58 2    
   114   57   59 am   BACKBONE|DICT|INTERRES
   115   59   60 1    
   116   59  125 1    
   117   60   61 1    
   118   60   62 1    
   119   60  126 1    
   120   61  127 1    
   121   61  128 1    
   122   61  129 1    
   123   62   63 2    
   124   62   64 am   BACKBONE|DICT|INTERRES
   125   64   65 1    
   126   64  130 1    
   127   65   66 1    
   128   65   69 1    
   129   65  131 1    
   130   66   67 am   BACKBONE|DICT|INTERRES
   131   66   68 2    
   132   67  132 1    
   133   67  133 1    
   134   69   70 1    
   135   69  134 1    
   136   69  135 1    
   137   70   71 1    
   138   71  136 1    
   139   71  137 1    
@<TRIPOS>SUBSTRUCTURE
     1 UNK         1 GROUP             0       ****    0 ROOT    
