@<TRIPOS>MOLECULE
3R137
137   139    1
SMALL
USER_CHARGES


@<TRIPOS>ATOM
      1 CA         23.4580   -5.4189   -2.7832 C.3       0 UNK        -0.2020 
      2 C          24.2195   -4.4591   -1.8821 C.2       0 UNK         0.4855 
      3 O          23.6374   -3.4991   -1.3755 O.2       0 UNK        -0.5197 
      4 N          25.5187   -4.7152   -1.6850 N.am      1 UNK        -0.4892 
      5 CA         26.4668   -3.9271   -0.8883 C.3       1 UNK         0.0835 
      6 C6         27.8757   -4.5890   -0.8139 C.3       12 UNK        -0.0855 
      7 S7         28.3866   -5.5319   -2.3018 S.3       12 UNK        -0.2931 
      8 C8         30.1736   -5.1981   -2.3934 C.3       12 UNK         0.0378 
      9 C9         30.4639   -3.9858   -3.2625 C.ar      12 UNK        -0.0802 
     10 C10        30.5898   -4.1310   -4.6464 C.ar      12 UNK        -0.0944 
     11 C11        30.8329   -3.0244   -5.4654 C.ar      12 UNK        -0.0787 
     12 C12        30.9437   -1.7553   -4.8781 C.ar      12 UNK        -0.0862 
     13 C13        30.8367   -1.6001   -3.4924 C.ar      12 UNK        -0.0733 
     14 C14        30.6027   -2.7208   -2.6905 C.ar      12 UNK        -0.0832 
     15 C15        30.9839   -0.2305   -2.8460 C.3       12 UNK         0.0240 
     16 S16        29.4559    0.2620   -1.9887 S.3       12 UNK        -0.2522 
     17 C17        28.7371    1.5229   -3.0893 C.3       12 UNK        -0.0967 
     18 CA         28.4641    1.0888   -4.5528 C.3       5 UNK         0.0660 
     19 N          27.7224   -0.1733   -4.6787 N.am      5 UNK        -0.4015 
     20 C          27.4660   -0.7832   -5.8483 C.2       4 UNK         0.4946 
     21 O          27.9114   -0.3983   -6.9319 O.2       4 UNK        -0.5353 
     22 CA         26.4840   -1.9665   -5.8255 C.3       4 UNK         0.0277 
     23 CB         27.1997   -3.2930   -5.5325 C.3       4 UNK        -0.1981 
     24 N          25.4112   -1.7534   -4.8524 N.am      4 UNK        -0.4209 
     25 C          24.3819   -0.9153   -5.0460 C.2       3 UNK         0.4942 
     26 O          24.2051   -0.2898   -6.0892 O.2       3 UNK        -0.5208 
     27 CA         23.4137   -0.6882   -3.8723 C.3       3 UNK         0.0250 
     28 CB         22.2489   -1.6877   -3.9236 C.3       3 UNK        -0.1990 
     29 N          24.0818   -0.7562   -2.5708 N.am      3 UNK        -0.4232 
     30 C          24.9814    0.1494   -2.1562 C.2       2 UNK         0.4993 
     31 O          25.2657    1.1616   -2.7965 O.2       2 UNK        -0.5286 
     32 CA         25.7310   -0.1376   -0.8426 C.3       2 UNK         0.0209 
     33 CB         25.0236    0.5456    0.3380 C.3       2 UNK        -0.1931 
     34 N          25.9032   -1.5644   -0.5482 N.am      2 UNK        -0.4546 
     35 C          26.5117   -2.4543   -1.3469 C.2       1 UNK         0.5154 
     36 O          27.0196   -2.1585   -2.4285 O.2       1 UNK        -0.5181 
     37 C          27.7732    2.2495   -5.3009 C.2       5 UNK         0.5014 
     38 O          28.4652    3.1108   -5.8402 O.2       5 UNK        -0.5248 
     39 N          26.4335    2.2633   -5.3140 N.am      6 UNK        -0.4434 
     40 CA         25.6327    3.2223   -6.0710 C.3       6 UNK         0.0363 
     41 CB         24.2109    3.2829   -5.4879 C.3       6 UNK        -0.1936 
     42 C          25.6006    2.8966   -7.5744 C.2       6 UNK         0.5081 
     43 O          25.8438    3.7882   -8.3879 O.2       6 UNK        -0.5248 
     44 N          25.2642    1.6453   -7.9189 N.am      7 UNK        -0.4718 
     45 CA         25.0113    1.2128   -9.2953 C.3       7 UNK         0.0273 
     46 CB         24.2057   -0.0969   -9.2877 C.3       7 UNK        -0.1935 
     47 C          26.2776    1.0572  -10.1500 C.2       7 UNK         0.5018 
     48 O          26.2995    1.5537  -11.2774 O.2       7 UNK        -0.5186 
     49 N          27.2842    0.3446   -9.6280 N.am      8 UNK        -0.4240 
     50 CA         28.5172    0.0243  -10.3506 C.3       8 UNK         0.0235 
     51 CB         28.9332   -1.4243  -10.0504 C.3       8 UNK        -0.2000 
     52 C          29.6345    1.0132  -10.0010 C.2       8 UNK         0.4941 
     53 O          30.2834    1.5307  -10.9120 O.2       8 UNK        -0.5273 
     54 N          29.8145    1.2789   -8.6988 N.am      9 UNK        -0.4262 
     55 CA         30.7277    2.2545   -8.0846 C.3       9 UNK         0.0264 
     56 CB         30.3567    3.6953   -8.4919 C.3       9 UNK        -0.1955 
     57 C          32.2283    1.9928   -8.3051 C.2       9 UNK         0.5031 
     58 O          32.9641    1.8496   -7.3272 O.2       9 UNK        -0.5390 
     59 N          32.6685    1.9394   -9.5679 N.am      10 UNK        -0.4204 
     60 CA         34.0606    1.7629   -9.9995 C.3       10 UNK         0.0237 
     61 CB         34.2176    2.3502  -11.4147 C.3       10 UNK        -0.1985 
     62 C          34.5154    0.2921   -9.9107 C.2       10 UNK         0.4970 
     63 O          35.0103   -0.2697  -10.8900 O.2       10 UNK        -0.4914 
     64 N          34.2995   -0.3099   -8.7410 N.am      11 UNK        -0.4285 
     65 CA         34.5340   -1.7254   -8.4423 C.3       11 UNK         0.1007 
     66 C          36.0025   -2.0030   -8.0278 C.2       11 UNK         0.5703 
     67 N          36.4703   -3.2318   -8.2016 N.am      11 UNK        -0.7361 
     68 O          36.7128   -1.1322   -7.5268 O.2       11 UNK        -0.4986 
     69 C69        33.5328   -2.2231   -7.3691 C.3       12 UNK        -0.0947 
     70 S70        31.8088   -1.9584   -7.9046 S.3       12 UNK        -0.2240 
     71 C71        30.9247   -3.2492   -6.9753 C.3       12 UNK         0.0194 
     72 H72        22.4559   -5.5910   -2.3910 H         1 UNK         0.0906 
     73 H73        23.3666   -5.0049   -3.7866 H         1 UNK         0.0906 
     74 H74        23.9593   -6.3838   -2.8571 H         1 UNK         0.0906 
     75 H75        25.9475   -5.4944   -2.1665 H         1 UNK         0.3140 
     76 H76        26.0726   -3.9262    0.1304 H         1 UNK         0.1085 
     77 H77        27.8842   -5.2992    0.0144 H         1 UNK         0.0836 
     78 H78        28.6400   -3.8522   -0.5599 H         1 UNK         0.0836 
     79 H79        30.6705   -6.0739   -2.8135 H         1 UNK         0.0731 
     80 H80        30.5875   -5.0696   -1.3920 H         1 UNK         0.0731 
     81 H81        30.4791   -5.1116   -5.0891 H         1 UNK         0.1312 
     82 H82        31.1113   -0.8835   -5.4937 H         1 UNK         0.1406 
     83 H83        30.5090   -2.6000   -1.6201 H         1 UNK         0.1631 
     84 H84        31.2752    0.5279   -3.5739 H         1 UNK         0.0717 
     85 H85        31.7927   -0.2746   -2.1155 H         1 UNK         0.0717 
     86 H86        27.8157    1.8661   -2.6160 H         1 UNK         0.0934 
     87 H87        29.4073    2.3850   -3.0785 H         1 UNK         0.0934 
     88 H88        29.4256    0.9318   -5.0438 H         1 UNK         0.0739 
     89 H89        27.3950   -0.6034   -3.8204 H         1 UNK         0.3093 
     90 H90        26.0336   -2.0446   -6.8173 H         1 UNK         0.0818 
     91 H91        27.7914   -3.2473   -4.6181 H         1 UNK         0.0819 
     92 H92        26.4930   -4.1166   -5.4320 H         1 UNK         0.0819 
     93 H93        27.8785   -3.5499   -6.3439 H         1 UNK         0.0819 
     94 H94        25.5557   -2.1572   -3.9345 H         1 UNK         0.3041 
     95 H95        22.9973    0.3158   -3.9805 H         1 UNK         0.0784 
     96 H96        21.6959   -1.5906   -4.8588 H         1 UNK         0.0793 
     97 H97        22.5958   -2.7178   -3.8582 H         1 UNK         0.0793 
     98 H98        21.5433   -1.5187   -3.1100 H         1 UNK         0.0793 
     99 H99        23.9105   -1.5817   -2.0030 H         1 UNK         0.3024 
    100 H100       26.7263    0.2976   -0.9403 H         1 UNK         0.1171 
    101 H101       25.5965    0.4407    1.2595 H         1 UNK         0.0786 
    102 H102       24.9029    1.6144    0.1544 H         1 UNK         0.0786 
    103 H103       24.0297    0.1297    0.5089 H         1 UNK         0.0786 
    104 H104       25.4645   -1.8995    0.2976 H         1 UNK         0.2977 
    105 H105       25.9339    1.5810   -4.7545 H         1 UNK         0.3127 
    106 H106       26.0797    4.2122   -5.9545 H         1 UNK         0.0770 
    107 H107       23.6974    2.3241   -5.5615 H         1 UNK         0.0814 
    108 H108       23.6044    4.0186   -6.0176 H         1 UNK         0.0814 
    109 H109       24.2271    3.5710   -4.4366 H         1 UNK         0.0814 
    110 H110       25.0369    0.9753   -7.1869 H         1 UNK         0.2983 
    111 H111       24.3916    1.9751   -9.7734 H         1 UNK         0.0947 
    112 H112       23.9850   -0.4275  -10.3036 H         1 UNK         0.0806 
    113 H113       23.2524    0.0282   -8.7738 H         1 UNK         0.0806 
    114 H114       24.7477   -0.9029   -8.7918 H         1 UNK         0.0806 
    115 H115       27.2275    0.0294   -8.6627 H         1 UNK         0.3000 
    116 H116       28.3467    0.0937  -11.4273 H         1 UNK         0.0850 
    117 H117       29.8798   -1.6692  -10.5342 H         1 UNK         0.0810 
    118 H118       28.1887   -2.1311  -10.4165 H         1 UNK         0.0810 
    119 H119       29.0567   -1.5985   -8.9824 H         1 UNK         0.0810 
    120 H120       29.2384    0.7585   -8.0437 H         1 UNK         0.3040 
    121 H121       30.5640    2.1650   -7.0109 H         1 UNK         0.0766 
    122 H122       29.3109    3.9110   -8.2724 H         1 UNK         0.0812 
    123 H123       30.5157    3.8784   -9.5549 H         1 UNK         0.0812 
    124 H124       30.9584    4.4207   -7.9431 H         1 UNK         0.0812 
    125 H125       31.9543    1.9567  -10.2948 H         1 UNK         0.3205 
    126 H126       34.7059    2.3352   -9.3296 H         1 UNK         0.0754 
    127 H127       35.2517    2.2831  -11.7558 H         1 UNK         0.0769 
    128 H128       33.9387    3.4038  -11.4394 H         1 UNK         0.0769 
    129 H129       33.5973    1.8223  -12.1404 H         1 UNK         0.0769 
    130 H130       33.9033    0.2472   -7.9912 H         1 UNK         0.2981 
    131 H131       34.3473   -2.2937   -9.3560 H         1 UNK         0.0541 
    132 H132       35.8963   -3.9568   -8.6033 H         1 UNK         0.3459 
    133 H133       37.4188   -3.4375   -7.9292 H         1 UNK         0.3459 
    134 H134       33.6816   -3.2861   -7.1717 H         1 UNK         0.0612 
    135 H135       33.6857   -1.7044   -6.4208 H         1 UNK         0.0612 
    136 H136       31.3992   -4.2095   -7.1827 H         1 UNK         0.0624 
    137 H137       29.9143   -3.3138   -7.3768 H         1 UNK         0.0624 
@<TRIPOS>BOND
     1    1    2 1    
     2    1   72 1    
     3    1   73 1    
     4    1   74 1    
     5    2    3 2    
     6    2    4 am   BACKBONE|DICT|INTERRES
     7    4    5 1    
     8    4   75 1    
     9    5    6 1    
    10    5   35 1    
    11    5   76 1    
    12    6    7 1    
    13    6   77 1    
    14    6   78 1    
    15    7    8 1    
    16    8    9 1    
    17    8   79 1    
    18    8   80 1    
    19    9   10 ar   
    20    9   14 ar   
    21   10   11 ar   
    22   10   81 1    
    23   11   12 ar   
    24   11   71 1    
    25   12   13 ar   
    26   12   82 1    
    27   13   14 ar   
    28   13   15 1    
    29   14   83 1    
    30   15   16 1    
    31   15   84 1    
    32   15   85 1    
    33   16   17 1    
    34   17   18 1    
    35   17   86 1    
    36   17   87 1    
    37   18   19 1    
    38   18   37 1    
    39   18   88 1    
    40   19   20 am   BACKBONE|DICT|INTERRES
    41   19   89 1    
    42   20   21 2    
    43   20   22 1    
    44   22   23 1    
    45   22   24 1    
    46   22   90 1    
    47   23   91 1    
    48   23   92 1    
    49   23   93 1    
    50   24   25 am   BACKBONE|DICT|INTERRES
    51   24   94 1    
    52   25   26 2    
    53   25   27 1    
    54   27   28 1    
    55   27   29 1    
    56   27   95 1    
    57   28   96 1    
    58   28   97 1    
    59   28   98 1    
    60   29   30 am   BACKBONE|DICT|INTERRES
    61   29   99 1    
    62   30   31 2    
    63   30   32 1    
    64   32   33 1    
    65   32   34 1    
    66   32  100 1    
    67   33  101 1    
    68   33  102 1    
    69   33  103 1    
    70   34   35 am   BACKBONE|DICT|INTERRES
    71   34  104 1    
    72   35   36 2    
    73   37   38 2    
    74   37   39 am   BACKBONE|DICT|INTERRES
    75   39   40 1    
    76   39  105 1    
    77   40   41 1    
    78   40   42 1    
    79   40  106 1    
    80   41  107 1    
    81   41  108 1    
    82   41  109 1    
    83   42   43 2    
    84   42   44 am   BACKBONE|DICT|INTERRES
    85   44   45 1    
    86   44  110 1    
    87   45   46 1    
    88   45   47 1    
    89   45  111 1    
    90   46  112 1    
    91   46  113 1    
    92   46  114 1    
    93   47   48 2    
    94   47   49 am   BACKBONE|DICT|INTERRES
    95   49   50 1    
    96   49  115 1    
    97   50   51 1    
    98   50   52 1    
    99   50  116 1    
   100   51  117 1    
   101   51  118 1    
   102   51  119 1    
   103   52   53 2    
   104   52   54 am   BACKBONE|DICT|INTERRES
   105   54   55 1    
   106   54  120 1    
   107   55   56 1    
   108   55   57 1    
   109   55  121 1    
   110   56  122 1    
   111   56  123 1    
   112   56  124 1    
   113   57   58 2    
   114   57   59 am   BACKBONE|DICT|INTERRES
   115   59   60 1    
   116   59  125 1    
   117   60   61 1    
   118   60   62 1    
   119   60  126 1    
   120   61  127 1    
   121   61  128 1    
   122   61  129 1    
   123   62   63 2    
   124   62   64 am   BACKBONE|DICT|INTERRES
   125   64   65 1    
   126   64  130 1    
   127   65   66 1    
   128   65   69 1    
   129   65  131 1    
   130   66   67 am   BACKBONE|DICT|INTERRES
   131   66   68 2    
   132   67  132 1    
   133   67  133 1    
   134   69   70 1    
   135   69  134 1    
   136   69  135 1    
   137   70   71 1    
   138   71  136 1    
   139   71  137 1    
@<TRIPOS>SUBSTRUCTURE
     1 UNK         1 GROUP             0       ****    0 ROOT    
