@<TRIPOS>MOLECULE
3R137
137   139    1
SMALL
USER_CHARGES


@<TRIPOS>ATOM
      1 CA         26.5294   -5.7831   -4.2213 C.3       0 UNK        -0.2020 
      2 C          26.1991   -4.6687   -3.2408 C.2       0 UNK         0.4855 
      3 O          25.0230   -4.4307   -2.9645 O.2       0 UNK        -0.5197 
      4 N          27.2287   -3.9821   -2.7243 N.am      1 UNK        -0.4892 
      5 CA         27.1547   -2.8472   -1.7939 C.3       1 UNK         0.0835 
      6 C6         28.5577   -2.2552   -1.5243 C.3       12 UNK        -0.0855 
      7 S7         29.6591   -3.3584   -0.5730 S.3       12 UNK        -0.2931 
      8 C8         30.9643   -3.7948   -1.7822 C.3       12 UNK         0.0378 
      9 C9         31.9394   -2.6814   -2.1870 C.ar      12 UNK        -0.0802 
     10 C10        33.1052   -3.0392   -2.8741 C.ar      12 UNK        -0.0944 
     11 C11        34.0005   -2.0654   -3.3301 C.ar      12 UNK        -0.0787 
     12 C12        33.7107   -0.7140   -3.1238 C.ar      12 UNK        -0.0862 
     13 C13        32.5512   -0.3374   -2.4430 C.ar      12 UNK        -0.0733 
     14 C14        31.6985   -1.3232   -1.9407 C.ar      12 UNK        -0.0832 
     15 C15        32.1968    1.1336   -2.2718 C.3       12 UNK         0.0240 
     16 S16        31.3575    1.8083   -3.7466 S.3       12 UNK        -0.2522 
     17 C17        29.8056    0.8468   -3.7843 C.3       12 UNK        -0.0967 
     18 CA         28.9995    1.0460   -5.0912 C.3       5 UNK         0.0660 
     19 N          28.1840   -0.1324   -5.4028 N.am      5 UNK        -0.4015 
     20 C          27.5880   -0.3631   -6.5780 C.2       4 UNK         0.4946 
     21 O          27.5674    0.4524   -7.4972 O.2       4 UNK        -0.5353 
     22 CA         26.9125   -1.7250   -6.7686 C.3       4 UNK         0.0277 
     23 CB         27.8488   -2.8876   -6.3931 C.3       4 UNK        -0.1981 
     24 N          25.6739   -1.8235   -5.9969 N.am      4 UNK        -0.4209 
     25 C          24.4902   -2.1952   -6.5094 C.2       3 UNK         0.4942 
     26 O          24.3049   -2.3993   -7.7099 O.2       3 UNK        -0.5208 
     27 CA         23.3093   -2.4185   -5.5437 C.3       3 UNK         0.0250 
     28 CB         22.8289   -3.8793   -5.6039 C.3       3 UNK        -0.1990 
     29 N          23.6300   -2.0872   -4.1544 N.am      3 UNK        -0.4232 
     30 C          23.4875   -0.8676   -3.6184 C.2       2 UNK         0.4993 
     31 O          23.0020    0.0867   -4.2242 O.2       2 UNK        -0.5286 
     32 CA         23.9903   -0.6600   -2.1759 C.3       2 UNK         0.0209 
     33 CB         22.8164   -0.7186   -1.1854 C.3       2 UNK        -0.1931 
     34 N          25.0266   -1.6094   -1.7532 N.am      2 UNK        -0.4546 
     35 C          26.2280   -1.7381   -2.3315 C.2       1 UNK         0.5154 
     36 O          26.6005   -1.0535   -3.2880 O.2       1 UNK        -0.5181 
     37 C          28.1583    2.3357   -5.0723 C.2       5 UNK         0.5014 
     38 O          28.5684    3.3403   -5.6547 O.2       5 UNK        -0.5248 
     39 N          26.9587    2.2667   -4.4746 N.am      6 UNK        -0.4434 
     40 CA         25.9835    3.3646   -4.4747 C.3       6 UNK         0.0363 
     41 CB         24.9087    3.1015   -3.4105 C.3       6 UNK        -0.1936 
     42 C          25.3401    3.6088   -5.8549 C.2       6 UNK         0.5081 
     43 O          24.8393    4.7064   -6.0983 O.2       6 UNK        -0.5248 
     44 N          25.3895    2.6031   -6.7398 N.am      7 UNK        -0.4718 
     45 CA         24.9812    2.6898   -8.1446 C.3       7 UNK         0.0273 
     46 CB         24.4049    1.3295   -8.5780 C.3       7 UNK        -0.1935 
     47 C          26.1368    3.1278   -9.0700 C.2       7 UNK         0.5018 
     48 O          25.9270    3.2164  -10.2804 O.2       7 UNK        -0.5186 
     49 N          27.3219    3.3919   -8.4957 N.am      8 UNK        -0.4240 
     50 CA         28.5709    3.8050   -9.1434 C.3       8 UNK         0.0235 
     51 CB         28.4130    5.1754   -9.8378 C.3       8 UNK        -0.2000 
     52 C          29.1926    2.7308  -10.0589 C.2       8 UNK         0.4941 
     53 O          29.8969    3.0803  -11.0091 O.2       8 UNK        -0.5273 
     54 N          28.9598    1.4466   -9.7535 N.am      9 UNK        -0.4262 
     55 CA         29.6442    0.3185  -10.3875 C.3       9 UNK         0.0264 
     56 CB         28.7963   -0.9538  -10.2231 C.3       9 UNK        -0.1955 
     57 C          31.0342    0.1181   -9.7618 C.2       9 UNK         0.5031 
     58 O          31.2552    0.4927   -8.6056 O.2       9 UNK        -0.5390 
     59 N          31.9411   -0.5062  -10.5227 N.am      10 UNK        -0.4204 
     60 CA         33.3049   -0.8421  -10.1049 C.3       10 UNK         0.0237 
     61 CB         34.1701   -1.0662  -11.3599 C.3       10 UNK        -0.1985 
     62 C          33.3233   -2.0505   -9.1476 C.2       10 UNK         0.4970 
     63 O          33.7705   -3.1325   -9.5338 O.2       10 UNK        -0.4914 
     64 N          32.8188   -1.8319   -7.9269 N.am      11 UNK        -0.4285 
     65 CA         32.6525   -2.8150   -6.8422 C.3       11 UNK         0.1007 
     66 C          31.5669   -3.8910   -7.1469 C.2       11 UNK         0.5703 
     67 N          31.3238   -4.8128   -6.2241 N.am      11 UNK        -0.7361 
     68 O          30.9098   -3.8861   -8.1863 O.2       11 UNK        -0.4986 
     69 C69        34.0005   -3.4374   -6.3674 C.3       12 UNK        -0.0947 
     70 S70        35.2089   -2.1785   -5.8328 S.3       12 UNK        -0.2240 
     71 C71        35.2865   -2.4685   -4.0378 C.3       12 UNK         0.0194 
     72 H72        26.0584   -5.5858   -5.1838 H         1 UNK         0.0906 
     73 H73        27.6026   -5.8817   -4.3832 H         1 UNK         0.0906 
     74 H74        26.1531   -6.7346   -3.8468 H         1 UNK         0.0906 
     75 H75        28.1657   -4.2545   -2.9801 H         1 UNK         0.3140 
     76 H76        26.7443   -3.2146   -0.8510 H         1 UNK         0.1085 
     77 H77        29.0309   -1.9900   -2.4707 H         1 UNK         0.0836 
     78 H78        28.4760   -1.3273   -0.9535 H         1 UNK         0.0836 
     79 H79        30.4915   -4.1882   -2.6828 H         1 UNK         0.0731 
     80 H80        31.5373   -4.6194   -1.3554 H         1 UNK         0.0731 
     81 H81        33.3178   -4.0840   -3.0556 H         1 UNK         0.1312 
     82 H82        34.3825    0.0439   -3.5035 H         1 UNK         0.1406 
     83 H83        30.8264   -1.0061   -1.3924 H         1 UNK         0.1631 
     84 H84        33.1046    1.7101   -2.0881 H         1 UNK         0.0717 
     85 H85        31.5620    1.2791   -1.3963 H         1 UNK         0.0717 
     86 H86        30.0857   -0.2027   -3.7154 H         1 UNK         0.0934 
     87 H87        29.2091    1.0618   -2.8953 H         1 UNK         0.0934 
     88 H88        29.7108    1.1419   -5.9159 H         1 UNK         0.0739 
     89 H89        28.0156   -0.7805   -4.6423 H         1 UNK         0.3093 
     90 H90        26.7017   -1.8094   -7.8369 H         1 UNK         0.0818 
     91 H91        27.4191   -3.8461   -6.6839 H         1 UNK         0.0819 
     92 H92        28.8033   -2.7943   -6.9100 H         1 UNK         0.0819 
     93 H93        28.0563   -2.9268   -5.3241 H         1 UNK         0.0819 
     94 H94        25.7413   -1.6179   -5.0058 H         1 UNK         0.3041 
     95 H95        22.4896   -1.7843   -5.8882 H         1 UNK         0.0784 
     96 H96        22.5095   -4.1463   -6.6122 H         1 UNK         0.0793 
     97 H97        23.6164   -4.5766   -5.3173 H         1 UNK         0.0793 
     98 H98        21.9782   -4.0446   -4.9427 H         1 UNK         0.0793 
     99 H99        24.0421   -2.8299   -3.5944 H         1 UNK         0.3024 
    100 H100       24.4260    0.3398   -2.1298 H         1 UNK         0.1171 
    101 H101       22.0406   -0.0008   -1.4562 H         1 UNK         0.0786 
    102 H102       23.1381   -0.4766   -0.1722 H         1 UNK         0.0786 
    103 H103       22.3541   -1.7064   -1.1659 H         1 UNK         0.0786 
    104 H104       24.7778   -2.2428   -1.0065 H         1 UNK         0.2977 
    105 H105       26.6838    1.3999   -4.0315 H         1 UNK         0.3127 
    106 H106       26.5105    4.2805   -4.1978 H         1 UNK         0.0770 
    107 H107       24.3016    2.2343   -3.6622 H         1 UNK         0.0814 
    108 H108       24.2322    3.9530   -3.3251 H         1 UNK         0.0814 
    109 H109       25.3484    2.9378   -2.4266 H         1 UNK         0.0814 
    110 H110       25.8520    1.7462   -6.4698 H         1 UNK         0.2983 
    111 H111       24.1911    3.4370   -8.2456 H         1 UNK         0.0947 
    112 H112       24.0108    1.3783   -9.5938 H         1 UNK         0.0806 
    113 H113       23.5856    1.0195   -7.9291 H         1 UNK         0.0806 
    114 H114       25.1587    0.5422   -8.5627 H         1 UNK         0.0806 
    115 H115       27.3935    3.2595   -7.4939 H         1 UNK         0.3000 
    116 H116       29.2870    3.9374   -8.3310 H         1 UNK         0.0850 
    117 H117       29.3781    5.5588  -10.1710 H         1 UNK         0.0810 
    118 H118       27.9890    5.9169   -9.1607 H         1 UNK         0.0810 
    119 H119       27.7695    5.1136  -10.7156 H         1 UNK         0.0810 
    120 H120       28.4094    1.2253   -8.9246 H         1 UNK         0.3040 
    121 H121       29.7566    0.5263  -11.4538 H         1 UNK         0.0766 
    122 H122       27.7653   -0.7926  -10.5386 H         1 UNK         0.0812 
    123 H123       28.7824   -1.2979   -9.1891 H         1 UNK         0.0812 
    124 H124       29.1973   -1.7702  -10.8247 H         1 UNK         0.0812 
    125 H125       31.6669   -0.8182  -11.4435 H         1 UNK         0.3205 
    126 H126       33.7250    0.0090   -9.5641 H         1 UNK         0.0754 
    127 H127       35.1987   -1.3054  -11.0862 H         1 UNK         0.0769 
    128 H128       34.2027   -0.1728  -11.9838 H         1 UNK         0.0769 
    129 H129       33.7954   -1.8887  -11.9707 H         1 UNK         0.0769 
    130 H130       32.3915   -0.9251   -7.7674 H         1 UNK         0.2981 
    131 H131       32.2457   -2.2393   -6.0097 H         1 UNK         0.0541 
    132 H132       31.8378   -4.8375   -5.3593 H         1 UNK         0.3459 
    133 H133       30.6202   -5.5093   -6.4101 H         1 UNK         0.3459 
    134 H134       34.4552   -4.0290   -7.1627 H         1 UNK         0.0612 
    135 H135       33.8401   -4.1334   -5.5441 H         1 UNK         0.0612 
    136 H136       35.5248   -3.5165   -3.8490 H         1 UNK         0.0624 
    137 H137       36.1163   -1.8911   -3.6278 H         1 UNK         0.0624 
@<TRIPOS>BOND
     1    1    2 1    
     2    1   72 1    
     3    1   73 1    
     4    1   74 1    
     5    2    3 2    
     6    2    4 am   BACKBONE|DICT|INTERRES
     7    4    5 1    
     8    4   75 1    
     9    5    6 1    
    10    5   35 1    
    11    5   76 1    
    12    6    7 1    
    13    6   77 1    
    14    6   78 1    
    15    7    8 1    
    16    8    9 1    
    17    8   79 1    
    18    8   80 1    
    19    9   10 ar   
    20    9   14 ar   
    21   10   11 ar   
    22   10   81 1    
    23   11   12 ar   
    24   11   71 1    
    25   12   13 ar   
    26   12   82 1    
    27   13   14 ar   
    28   13   15 1    
    29   14   83 1    
    30   15   16 1    
    31   15   84 1    
    32   15   85 1    
    33   16   17 1    
    34   17   18 1    
    35   17   86 1    
    36   17   87 1    
    37   18   19 1    
    38   18   37 1    
    39   18   88 1    
    40   19   20 am   BACKBONE|DICT|INTERRES
    41   19   89 1    
    42   20   21 2    
    43   20   22 1    
    44   22   23 1    
    45   22   24 1    
    46   22   90 1    
    47   23   91 1    
    48   23   92 1    
    49   23   93 1    
    50   24   25 am   BACKBONE|DICT|INTERRES
    51   24   94 1    
    52   25   26 2    
    53   25   27 1    
    54   27   28 1    
    55   27   29 1    
    56   27   95 1    
    57   28   96 1    
    58   28   97 1    
    59   28   98 1    
    60   29   30 am   BACKBONE|DICT|INTERRES
    61   29   99 1    
    62   30   31 2    
    63   30   32 1    
    64   32   33 1    
    65   32   34 1    
    66   32  100 1    
    67   33  101 1    
    68   33  102 1    
    69   33  103 1    
    70   34   35 am   BACKBONE|DICT|INTERRES
    71   34  104 1    
    72   35   36 2    
    73   37   38 2    
    74   37   39 am   BACKBONE|DICT|INTERRES
    75   39   40 1    
    76   39  105 1    
    77   40   41 1    
    78   40   42 1    
    79   40  106 1    
    80   41  107 1    
    81   41  108 1    
    82   41  109 1    
    83   42   43 2    
    84   42   44 am   BACKBONE|DICT|INTERRES
    85   44   45 1    
    86   44  110 1    
    87   45   46 1    
    88   45   47 1    
    89   45  111 1    
    90   46  112 1    
    91   46  113 1    
    92   46  114 1    
    93   47   48 2    
    94   47   49 am   BACKBONE|DICT|INTERRES
    95   49   50 1    
    96   49  115 1    
    97   50   51 1    
    98   50   52 1    
    99   50  116 1    
   100   51  117 1    
   101   51  118 1    
   102   51  119 1    
   103   52   53 2    
   104   52   54 am   BACKBONE|DICT|INTERRES
   105   54   55 1    
   106   54  120 1    
   107   55   56 1    
   108   55   57 1    
   109   55  121 1    
   110   56  122 1    
   111   56  123 1    
   112   56  124 1    
   113   57   58 2    
   114   57   59 am   BACKBONE|DICT|INTERRES
   115   59   60 1    
   116   59  125 1    
   117   60   61 1    
   118   60   62 1    
   119   60  126 1    
   120   61  127 1    
   121   61  128 1    
   122   61  129 1    
   123   62   63 2    
   124   62   64 am   BACKBONE|DICT|INTERRES
   125   64   65 1    
   126   64  130 1    
   127   65   66 1    
   128   65   69 1    
   129   65  131 1    
   130   66   67 am   BACKBONE|DICT|INTERRES
   131   66   68 2    
   132   67  132 1    
   133   67  133 1    
   134   69   70 1    
   135   69  134 1    
   136   69  135 1    
   137   70   71 1    
   138   71  136 1    
   139   71  137 1    
@<TRIPOS>SUBSTRUCTURE
     1 UNK         1 GROUP             0       ****    0 ROOT    
