@<TRIPOS>MOLECULE
3R137
137   139    1
SMALL
USER_CHARGES


@<TRIPOS>ATOM
      1 CA         23.2990   -4.4253   -5.6270 C.3       0 UNK        -0.2020 
      2 C          24.4342   -4.0358   -4.6943 C.2       0 UNK         0.4855 
      3 O          24.3728   -2.9767   -4.0703 O.2       0 UNK        -0.5197 
      4 N          25.4623   -4.8879   -4.5762 N.am      1 UNK        -0.4892 
      5 CA         26.6910   -4.6668   -3.7935 C.3       1 UNK         0.0835 
      6 C6         27.5966   -3.5686   -4.4254 C.3       12 UNK        -0.0855 
      7 S7         29.3383   -4.0812   -4.5992 S.3       12 UNK        -0.2931 
      8 C8         30.1398   -3.2618   -3.1819 C.3       12 UNK         0.0378 
      9 C9         30.1088   -1.7433   -3.2897 C.ar      12 UNK        -0.0802 
     10 C10        30.9175   -1.0914   -4.2254 C.ar      12 UNK        -0.0944 
     11 C11        30.9119    0.3028   -4.3169 C.ar      12 UNK        -0.0787 
     12 C12        30.0936    1.0459   -3.4630 C.ar      12 UNK        -0.0862 
     13 C13        29.2754    0.4066   -2.5267 C.ar      12 UNK        -0.0733 
     14 C14        29.2904   -0.9891   -2.4409 C.ar      12 UNK        -0.0832 
     15 C15        28.3890    1.2337   -1.6025 C.3       12 UNK         0.0240 
     16 S16        26.6071    1.0304   -1.9383 S.3       12 UNK        -0.2522 
     17 C17        26.4860    1.3639   -3.7296 C.3       12 UNK        -0.0967 
     18 CA         25.9329    0.1180   -4.4742 C.3       5 UNK         0.0660 
     19 N          24.5117   -0.1672   -4.2429 N.am      5 UNK        -0.4015 
     20 C          23.4605    0.6543   -4.3773 C.2       4 UNK         0.4946 
     21 O          23.5362    1.8512   -4.6603 O.2       4 UNK        -0.5353 
     22 CA         22.0599    0.0452   -4.1744 C.3       4 UNK         0.0277 
     23 CB         21.4152   -0.2642   -5.5361 C.3       4 UNK        -0.1981 
     24 N          22.0132   -1.1640   -3.3465 N.am      4 UNK        -0.4209 
     25 C          22.3004   -1.2327   -2.0394 C.2       3 UNK         0.4942 
     26 O          22.7191   -0.2844   -1.3754 O.2       3 UNK        -0.5208 
     27 CA         22.0425   -2.5767   -1.3442 C.3       3 UNK         0.0250 
     28 CB         20.9208   -3.4136   -1.9961 C.3       3 UNK        -0.1990 
     29 N          23.2727   -3.3649   -1.2917 N.am      3 UNK        -0.4232 
     30 C          23.6532   -4.1040   -0.2391 C.2       2 UNK         0.4993 
     31 O          23.0327   -4.1292    0.8256 O.2       2 UNK        -0.5286 
     32 CA         24.9051   -4.9930   -0.3823 C.3       2 UNK         0.0209 
     33 CB         24.6420   -6.4141    0.1513 C.3       2 UNK        -0.1931 
     34 N          25.3663   -5.1002   -1.7689 N.am      2 UNK        -0.4546 
     35 C          26.4197   -4.4516   -2.2815 C.2       1 UNK         0.5154 
     36 O          27.1374   -3.7055   -1.6145 O.2       1 UNK        -0.5181 
     37 C          26.2750    0.1164   -5.9770 C.2       5 UNK         0.5014 
     38 O          25.4982    0.5963   -6.8050 O.2       5 UNK        -0.5248 
     39 N          27.4451   -0.4508   -6.3035 N.am      6 UNK        -0.4434 
     40 CA         27.9241   -0.6259   -7.6783 C.3       6 UNK         0.0363 
     41 CB         28.9889   -1.7329   -7.7010 C.3       6 UNK        -0.1936 
     42 C          28.4798    0.6618   -8.3082 C.2       6 UNK         0.5081 
     43 O          28.4690    0.7800   -9.5340 O.2       6 UNK        -0.5248 
     44 N          28.9637    1.5914   -7.4701 N.am      7 UNK        -0.4718 
     45 CA         29.5947    2.8622   -7.8473 C.3       7 UNK         0.0273 
     46 CB         28.5418    3.8333   -8.4297 C.3       7 UNK        -0.1935 
     47 C          30.8260    2.6407   -8.7524 C.2       7 UNK         0.5018 
     48 O          31.6140    1.7277   -8.4887 O.2       7 UNK        -0.5186 
     49 N          30.9699    3.4506   -9.8098 N.am      8 UNK        -0.4240 
     50 CA         32.0895    3.4379  -10.7592 C.3       8 UNK         0.0235 
     51 CB         31.8813    4.5564  -11.7932 C.3       8 UNK        -0.2000 
     52 C          32.3429    2.0932  -11.4694 C.2       8 UNK         0.4941 
     53 O          33.4569    1.8782  -11.9476 O.2       8 UNK        -0.5273 
     54 N          31.3388    1.2041  -11.5061 N.am      9 UNK        -0.4262 
     55 CA         31.4520   -0.1514  -12.0495 C.3       9 UNK         0.0264 
     56 CB         30.0499   -0.7640  -12.1962 C.3       9 UNK        -0.1955 
     57 C          32.3598   -1.0818  -11.2213 C.2       9 UNK         0.5031 
     58 O          32.8556   -2.0615  -11.7807 O.2       9 UNK        -0.5390 
     59 N          32.5631   -0.7774   -9.9301 N.am      10 UNK        -0.4204 
     60 CA         33.4380   -1.5410   -9.0337 C.3       10 UNK         0.0237 
     61 CB         32.5943   -2.2842   -7.9859 C.3       10 UNK        -0.1985 
     62 C          34.4858   -0.6524   -8.3505 C.2       10 UNK         0.4970 
     63 O          35.6347   -1.0782   -8.2266 O.2       10 UNK        -0.4914 
     64 N          34.0874    0.5499   -7.9176 N.am      11 UNK        -0.4285 
     65 CA         34.9477    1.5084   -7.2063 C.3       11 UNK         0.1007 
     66 C          35.7238    2.4753   -8.1477 C.2       11 UNK         0.5703 
     67 N          35.5557    2.4147   -9.4637 N.am      11 UNK        -0.7361 
     68 O          36.5126    3.2902   -7.6747 O.2       11 UNK        -0.4986 
     69 C69        34.1521    2.2819   -6.1205 C.3       12 UNK        -0.0947 
     70 S70        33.4918    1.1955   -4.8077 S.3       12 UNK        -0.2240 
     71 C71        31.7696    1.0085   -5.3523 C.3       12 UNK         0.0194 
     72 H72        23.5279   -5.3286   -6.1919 H         1 UNK         0.0906 
     73 H73        22.3873   -4.6018   -5.0579 H         1 UNK         0.0906 
     74 H74        23.1081   -3.6220   -6.3380 H         1 UNK         0.0906 
     75 H75        25.4405   -5.7537   -5.0989 H         1 UNK         0.3140 
     76 H76        27.2232   -5.6183   -3.8439 H         1 UNK         0.1085 
     77 H77        27.5352   -2.6287   -3.8826 H         1 UNK         0.0836 
     78 H78        27.2533   -3.3318   -5.4332 H         1 UNK         0.0836 
     79 H79        31.1785   -3.5916   -3.1321 H         1 UNK         0.0731 
     80 H80        29.6752   -3.5982   -2.2547 H         1 UNK         0.0731 
     81 H81        31.5528   -1.6715   -4.8808 H         1 UNK         0.1312 
     82 H82        30.0921    2.1255   -3.5299 H         1 UNK         0.1406 
     83 H83        28.6606   -1.4863   -1.7146 H         1 UNK         0.1631 
     84 H84        28.6378    2.2936   -1.6757 H         1 UNK         0.0717 
     85 H85        28.5858    0.9476   -0.5685 H         1 UNK         0.0717 
     86 H86        25.8663    2.2458   -3.8870 H         1 UNK         0.0934 
     87 H87        27.4668    1.6440   -4.1126 H         1 UNK         0.0934 
     88 H88        26.4370   -0.7504   -4.0549 H         1 UNK         0.0739 
     89 H89        24.3137   -1.1488   -4.0574 H         1 UNK         0.3093 
     90 H90        21.4529    0.8035   -3.6751 H         1 UNK         0.0818 
     91 H91        21.9632   -1.0393   -6.0737 H         1 UNK         0.0819 
     92 H92        20.3829   -0.5957   -5.4233 H         1 UNK         0.0819 
     93 H93        21.4004    0.6226   -6.1716 H         1 UNK         0.0819 
     94 H94        21.6988   -2.0067   -3.8039 H         1 UNK         0.3041 
     95 H95        21.7188   -2.3244   -0.3319 H         1 UNK         0.0784 
     96 H96        20.0109   -2.8252   -2.1234 H         1 UNK         0.0793 
     97 H97        21.2088   -3.8025   -2.9729 H         1 UNK         0.0793 
     98 H98        20.6617   -4.2676   -1.3699 H         1 UNK         0.0793 
     99 H99        23.8571   -3.3350   -2.1215 H         1 UNK         0.3024 
    100 H100       25.6797   -4.5393    0.2403 H         1 UNK         0.1171 
    101 H101       23.8328   -6.9053   -0.3904 H         1 UNK         0.0786 
    102 H102       25.5309   -7.0396    0.0666 H         1 UNK         0.0786 
    103 H103       24.3648   -6.3955    1.2063 H         1 UNK         0.0786 
    104 H104       24.8126   -5.6750   -2.3887 H         1 UNK         0.2977 
    105 H105       28.0410   -0.8110   -5.5713 H         1 UNK         0.3127 
    106 H106       27.0870   -0.9511   -8.3002 H         1 UNK         0.0770 
    107 H107       29.7904   -1.5287   -6.9925 H         1 UNK         0.0814 
    108 H108       29.4392   -1.8305   -8.6901 H         1 UNK         0.0814 
    109 H109       28.5596   -2.7019   -7.4475 H         1 UNK         0.0814 
    110 H110       28.9493    1.3804   -6.4838 H         1 UNK         0.2983 
    111 H111       29.9744    3.3090   -6.9281 H         1 UNK         0.0947 
    112 H112       28.9524    4.8346   -8.5658 H         1 UNK         0.0806 
    113 H113       27.6909    3.9335   -7.7556 H         1 UNK         0.0806 
    114 H114       28.1562    3.4943   -9.3921 H         1 UNK         0.0806 
    115 H115       30.2614    4.1532   -9.9643 H         1 UNK         0.3000 
    116 H116       32.9921    3.6665  -10.1888 H         1 UNK         0.0850 
    117 H117       32.7134    4.5979  -12.4978 H         1 UNK         0.0810 
    118 H118       31.8178    5.5342  -11.3154 H         1 UNK         0.0810 
    119 H119       30.9705    4.4043  -12.3738 H         1 UNK         0.0810 
    120 H120       30.4596    1.4467  -11.0680 H         1 UNK         0.3040 
    121 H121       31.8918   -0.0720  -13.0460 H         1 UNK         0.0766 
    122 H122       30.1006   -1.7364  -12.6880 H         1 UNK         0.0812 
    123 H123       29.3973   -0.1311  -12.7977 H         1 UNK         0.0812 
    124 H124       29.5727   -0.9170  -11.2281 H         1 UNK         0.0812 
    125 H125       32.1240    0.0569   -9.5541 H         1 UNK         0.3205 
    126 H126       33.9942   -2.2910   -9.6000 H         1 UNK         0.0754 
    127 H127       32.0499   -1.5920   -7.3471 H         1 UNK         0.0769 
    128 H128       33.2249   -2.8951   -7.3386 H         1 UNK         0.0769 
    129 H129       31.8713   -2.9502   -8.4571 H         1 UNK         0.0769 
    130 H130       33.1341    0.8669   -8.0745 H         1 UNK         0.2981 
    131 H131       35.7236    0.9470   -6.6824 H         1 UNK         0.0541 
    132 H132       34.9263    1.7459   -9.8783 H         1 UNK         0.3459 
    133 H133       36.0779    3.0430  -10.0530 H         1 UNK         0.3459 
    134 H134       33.3429    2.8574   -6.5730 H         1 UNK         0.0612 
    135 H135       34.7953    3.0108   -5.6243 H         1 UNK         0.0612 
    136 H136       31.3586    1.9942   -5.5675 H         1 UNK         0.0624 
    137 H137       31.7431    0.4457   -6.2833 H         1 UNK         0.0624 
@<TRIPOS>BOND
     1    1    2 1    
     2    1   72 1    
     3    1   73 1    
     4    1   74 1    
     5    2    3 2    
     6    2    4 am   BACKBONE|DICT|INTERRES
     7    4    5 1    
     8    4   75 1    
     9    5    6 1    
    10    5   35 1    
    11    5   76 1    
    12    6    7 1    
    13    6   77 1    
    14    6   78 1    
    15    7    8 1    
    16    8    9 1    
    17    8   79 1    
    18    8   80 1    
    19    9   10 ar   
    20    9   14 ar   
    21   10   11 ar   
    22   10   81 1    
    23   11   12 ar   
    24   11   71 1    
    25   12   13 ar   
    26   12   82 1    
    27   13   14 ar   
    28   13   15 1    
    29   14   83 1    
    30   15   16 1    
    31   15   84 1    
    32   15   85 1    
    33   16   17 1    
    34   17   18 1    
    35   17   86 1    
    36   17   87 1    
    37   18   19 1    
    38   18   37 1    
    39   18   88 1    
    40   19   20 am   BACKBONE|DICT|INTERRES
    41   19   89 1    
    42   20   21 2    
    43   20   22 1    
    44   22   23 1    
    45   22   24 1    
    46   22   90 1    
    47   23   91 1    
    48   23   92 1    
    49   23   93 1    
    50   24   25 am   BACKBONE|DICT|INTERRES
    51   24   94 1    
    52   25   26 2    
    53   25   27 1    
    54   27   28 1    
    55   27   29 1    
    56   27   95 1    
    57   28   96 1    
    58   28   97 1    
    59   28   98 1    
    60   29   30 am   BACKBONE|DICT|INTERRES
    61   29   99 1    
    62   30   31 2    
    63   30   32 1    
    64   32   33 1    
    65   32   34 1    
    66   32  100 1    
    67   33  101 1    
    68   33  102 1    
    69   33  103 1    
    70   34   35 am   BACKBONE|DICT|INTERRES
    71   34  104 1    
    72   35   36 2    
    73   37   38 2    
    74   37   39 am   BACKBONE|DICT|INTERRES
    75   39   40 1    
    76   39  105 1    
    77   40   41 1    
    78   40   42 1    
    79   40  106 1    
    80   41  107 1    
    81   41  108 1    
    82   41  109 1    
    83   42   43 2    
    84   42   44 am   BACKBONE|DICT|INTERRES
    85   44   45 1    
    86   44  110 1    
    87   45   46 1    
    88   45   47 1    
    89   45  111 1    
    90   46  112 1    
    91   46  113 1    
    92   46  114 1    
    93   47   48 2    
    94   47   49 am   BACKBONE|DICT|INTERRES
    95   49   50 1    
    96   49  115 1    
    97   50   51 1    
    98   50   52 1    
    99   50  116 1    
   100   51  117 1    
   101   51  118 1    
   102   51  119 1    
   103   52   53 2    
   104   52   54 am   BACKBONE|DICT|INTERRES
   105   54   55 1    
   106   54  120 1    
   107   55   56 1    
   108   55   57 1    
   109   55  121 1    
   110   56  122 1    
   111   56  123 1    
   112   56  124 1    
   113   57   58 2    
   114   57   59 am   BACKBONE|DICT|INTERRES
   115   59   60 1    
   116   59  125 1    
   117   60   61 1    
   118   60   62 1    
   119   60  126 1    
   120   61  127 1    
   121   61  128 1    
   122   61  129 1    
   123   62   63 2    
   124   62   64 am   BACKBONE|DICT|INTERRES
   125   64   65 1    
   126   64  130 1    
   127   65   66 1    
   128   65   69 1    
   129   65  131 1    
   130   66   67 am   BACKBONE|DICT|INTERRES
   131   66   68 2    
   132   67  132 1    
   133   67  133 1    
   134   69   70 1    
   135   69  134 1    
   136   69  135 1    
   137   70   71 1    
   138   71  136 1    
   139   71  137 1    
@<TRIPOS>SUBSTRUCTURE
     1 UNK         1 GROUP             0       ****    0 ROOT    
