@<TRIPOS>MOLECULE
3R137
137   139    1
SMALL
USER_CHARGES


@<TRIPOS>ATOM
      1 CA         28.4219    3.7668   -2.2544 C.3       0 UNK        -0.2020 
      2 C          27.9735    2.8068   -3.3455 C.2       0 UNK         0.4855 
      3 O          28.0469    3.1449   -4.5268 O.2       0 UNK        -0.5197 
      4 N          27.5310    1.6051   -2.9616 N.am      1 UNK        -0.4892 
      5 CA         27.0085    0.5716   -3.8659 C.3       1 UNK         0.0835 
      6 C6         27.8314   -0.7339   -3.7753 C.3       12 UNK        -0.0855 
      7 S7         27.9624   -1.4664   -2.1058 S.3       12 UNK        -0.2931 
      8 C8         29.6642   -2.1294   -2.1401 C.3       12 UNK         0.0378 
      9 C9         29.9528   -2.9456   -3.3966 C.ar      12 UNK        -0.0802 
     10 C10        30.9828   -2.5609   -4.2628 C.ar      12 UNK        -0.0944 
     11 C11        31.2243   -3.2773   -5.4387 C.ar      12 UNK        -0.0787 
     12 C12        30.4299   -4.3848   -5.7460 C.ar      12 UNK        -0.0862 
     13 C13        29.3954   -4.7762   -4.8925 C.ar      12 UNK        -0.0733 
     14 C14        29.1712   -4.0630   -3.7109 C.ar      12 UNK        -0.0832 
     15 C15        28.5113   -5.9571   -5.2649 C.3       12 UNK         0.0240 
     16 S16        27.3896   -5.5486   -6.6413 S.3       12 UNK        -0.2522 
     17 C17        26.2657   -4.3594   -5.8373 C.3       12 UNK        -0.0967 
     18 CA         25.1543   -3.8502   -6.7967 C.3       5 UNK         0.0660 
     19 N          23.9211   -3.5507   -6.0736 N.am      5 UNK        -0.4015 
     20 C          22.9464   -4.4293   -5.8149 C.2       4 UNK         0.4946 
     21 O          22.9685   -5.6062   -6.1827 O.2       4 UNK        -0.5353 
     22 CA         21.7591   -3.8972   -4.9874 C.3       4 UNK         0.0277 
     23 CB         20.6966   -4.9774   -4.6888 C.3       4 UNK        -0.1981 
     24 N          22.1936   -3.2383   -3.7475 N.am      4 UNK        -0.4209 
     25 C          22.9152   -3.7714   -2.7459 C.2       3 UNK         0.4942 
     26 O          23.2900   -4.9444   -2.7137 O.2       3 UNK        -0.5208 
     27 CA         23.2934   -2.8215   -1.5956 C.3       3 UNK         0.0250 
     28 CB         24.5478   -3.2821   -0.8274 C.3       3 UNK        -0.1990 
     29 N          23.5131   -1.4729   -2.1132 N.am      3 UNK        -0.4232 
     30 C          23.1115   -0.3257   -1.5605 C.2       2 UNK         0.4993 
     31 O          22.5000   -0.2601   -0.4925 O.2       2 UNK        -0.5286 
     32 CA         23.4576    0.9612   -2.3431 C.3       2 UNK         0.0209 
     33 CB         23.0684    2.2416   -1.5796 C.3       2 UNK        -0.1931 
     34 N          24.8752    1.0493   -2.7160 N.am      2 UNK        -0.4546 
     35 C          25.4995    0.3252   -3.6586 C.2       1 UNK         0.5154 
     36 O          24.9203   -0.5245   -4.3404 O.2       1 UNK        -0.5181 
     37 C          25.5680   -2.6139   -7.6201 C.2       5 UNK         0.5014 
     38 O          24.8207   -1.6324   -7.6801 O.2       5 UNK        -0.5248 
     39 N          26.7424   -2.6906   -8.2583 N.am      6 UNK        -0.4434 
     40 CA         27.3759   -1.5906   -8.9913 C.3       6 UNK         0.0363 
     41 CB         28.5597   -2.1509   -9.7973 C.3       6 UNK        -0.1936 
     42 C          27.8471   -0.4707   -8.0458 C.2       6 UNK         0.5081 
     43 O          28.0696   -0.7237   -6.8624 O.2       6 UNK        -0.5248 
     44 N          28.0020    0.7466   -8.5836 N.am      7 UNK        -0.4718 
     45 CA         28.4840    1.9172   -7.8447 C.3       7 UNK         0.0273 
     46 CB         28.3678    3.1672   -8.7323 C.3       7 UNK        -0.1935 
     47 C          29.9342    1.7245   -7.3750 C.2       7 UNK         0.5018 
     48 O          30.8099    1.4942   -8.2130 O.2       7 UNK        -0.5186 
     49 N          30.1738    1.8608   -6.0631 N.am      8 UNK        -0.4240 
     50 CA         31.4793    1.6281   -5.4296 C.3       8 UNK         0.0235 
     51 CB         31.3453    1.7090   -3.9015 C.3       8 UNK        -0.2000 
     52 C          32.5844    2.5747   -5.9266 C.2       8 UNK         0.4941 
     53 O          33.7508    2.1846   -5.9472 O.2       8 UNK        -0.5273 
     54 N          32.1955    3.7790   -6.3672 N.am      9 UNK        -0.4262 
     55 CA         33.0697    4.7482   -7.0293 C.3       9 UNK         0.0264 
     56 CB         32.3274    6.0888   -7.1546 C.3       9 UNK        -0.1955 
     57 C          33.5766    4.2833   -8.4094 C.2       9 UNK         0.5031 
     58 O          34.6120    4.7808   -8.8549 O.2       9 UNK        -0.5390 
     59 N          32.8537    3.3602   -9.0611 N.am      10 UNK        -0.4204 
     60 CA         33.2259    2.7740  -10.3459 C.3       10 UNK         0.0237 
     61 CB         31.9736    2.5909  -11.2222 C.3       10 UNK        -0.1985 
     62 C          33.9619    1.4430  -10.1441 C.2       10 UNK         0.4970 
     63 O          35.0591    1.2845  -10.6814 O.2       10 UNK        -0.4914 
     64 N          33.3529    0.5096   -9.3977 N.am      11 UNK        -0.4285 
     65 CA         33.8982   -0.8434   -9.1890 C.3       11 UNK         0.1007 
     66 C          35.0055   -0.9649   -8.1039 C.2       11 UNK         0.5703 
     67 N          35.2199    0.0200   -7.2417 N.am      11 UNK        -0.7361 
     68 O          35.7037   -1.9750   -8.0572 O.2       11 UNK        -0.4986 
     69 C69        32.7868   -1.9127   -9.0312 C.3       12 UNK        -0.0947 
     70 S70        31.6751   -1.6587   -7.6093 S.3       12 UNK        -0.2240 
     71 C71        32.3224   -2.8478   -6.3973 C.3       12 UNK         0.0194 
     72 H72        28.4841    3.2790   -1.2818 H         1 UNK         0.0906 
     73 H73        29.4036    4.1762   -2.4898 H         1 UNK         0.0906 
     74 H74        27.7197    4.5963   -2.1763 H         1 UNK         0.0906 
     75 H75        27.5566    1.3460   -1.9842 H         1 UNK         0.3140 
     76 H76        27.0821    0.9126   -4.9002 H         1 UNK         0.1085 
     77 H77        27.4244   -1.4917   -4.4455 H         1 UNK         0.0836 
     78 H78        28.8329   -0.5295   -4.1554 H         1 UNK         0.0836 
     79 H79        30.3628   -1.2958   -2.0523 H         1 UNK         0.0731 
     80 H80        29.8200   -2.7561   -1.2612 H         1 UNK         0.0731 
     81 H81        31.5851   -1.6919   -4.0358 H         1 UNK         0.1312 
     82 H82        30.6000   -4.9297   -6.6647 H         1 UNK         0.1406 
     83 H83        28.3663   -4.3531   -3.0490 H         1 UNK         0.1631 
     84 H84        27.9275   -6.2963   -4.4077 H         1 UNK         0.0717 
     85 H85        29.1400   -6.7985   -5.5595 H         1 UNK         0.0717 
     86 H86        25.8215   -4.8750   -4.9836 H         1 UNK         0.0934 
     87 H87        26.8377   -3.5312   -5.4158 H         1 UNK         0.0934 
     88 H88        24.9275   -4.6285   -7.5290 H         1 UNK         0.0739 
     89 H89        23.8162   -2.5792   -5.8084 H         1 UNK         0.3093 
     90 H90        21.2814   -3.1292   -5.5980 H         1 UNK         0.0818 
     91 H91        19.8536   -4.5630   -4.1361 H         1 UNK         0.0819 
     92 H92        20.3008   -5.4009   -5.6127 H         1 UNK         0.0819 
     93 H93        21.1076   -5.8017   -4.1049 H         1 UNK         0.0819 
     94 H94        21.9360   -2.2650   -3.6609 H         1 UNK         0.3041 
     95 H95        22.4461   -2.8180   -0.9069 H         1 UNK         0.0784 
     96 H96        24.3971   -4.2646   -0.3785 H         1 UNK         0.0793 
     97 H97        25.4164   -3.3496   -1.4839 H         1 UNK         0.0793 
     98 H98        24.7932   -2.5925   -0.0197 H         1 UNK         0.0793 
     99 H99        24.0293   -1.4038   -2.9889 H         1 UNK         0.3024 
    100 H100       22.8675    0.9333   -3.2622 H         1 UNK         0.1171 
    101 H101       23.2655    3.1343   -2.1735 H         1 UNK         0.0786 
    102 H102       23.6164    2.3338   -0.6410 H         1 UNK         0.0786 
    103 H103       22.0044    2.2467   -1.3384 H         1 UNK         0.0786 
    104 H104       25.4286    1.7195   -2.2034 H         1 UNK         0.2977 
    105 H105       27.3072   -3.5153   -8.1057 H         1 UNK         0.3127 
    106 H106       26.6425   -1.1715   -9.6834 H         1 UNK         0.0770 
    107 H107       29.2911   -2.6354   -9.1496 H         1 UNK         0.0814 
    108 H108       29.0805   -1.3598  -10.3384 H         1 UNK         0.0814 
    109 H109       28.2278   -2.8828  -10.5337 H         1 UNK         0.0814 
    110 H110       27.8369    0.8709   -9.5717 H         1 UNK         0.2983 
    111 H111       27.8396    2.0526   -6.9742 H         1 UNK         0.0947 
    112 H112       28.7007    4.0573   -8.1966 H         1 UNK         0.0806 
    113 H113       27.3365    3.3428   -9.0386 H         1 UNK         0.0806 
    114 H114       28.9769    3.0825   -9.6335 H         1 UNK         0.0806 
    115 H115       29.4061    2.1331   -5.4551 H         1 UNK         0.3000 
    116 H116       31.7866    0.6128   -5.6869 H         1 UNK         0.0850 
    117 H117       32.2921    1.4673   -3.4165 H         1 UNK         0.0810 
    118 H118       30.6035    1.0045   -3.5261 H         1 UNK         0.0810 
    119 H119       31.0609    2.7093   -3.5757 H         1 UNK         0.0810 
    120 H120       31.2163    4.0160   -6.3003 H         1 UNK         0.3040 
    121 H121       33.9454    4.8982   -6.3941 H         1 UNK         0.0766 
    122 H122       32.9636    6.8449   -7.6172 H         1 UNK         0.0812 
    123 H123       32.0308    6.4723   -6.1781 H         1 UNK         0.0812 
    124 H124       31.4304    5.9986   -7.7687 H         1 UNK         0.0812 
    125 H125       32.0465    2.9467   -8.6039 H         1 UNK         0.3205 
    126 H126       33.8986    3.4494  -10.8791 H         1 UNK         0.0754 
    127 H127       32.2399    2.1827  -12.1981 H         1 UNK         0.0769 
    128 H128       31.4719    3.5429  -11.3960 H         1 UNK         0.0769 
    129 H129       31.2491    1.9106  -10.7739 H         1 UNK         0.0769 
    130 H130       32.4534    0.7084   -8.9685 H         1 UNK         0.2981 
    131 H131       34.4099   -1.1145  -10.1147 H         1 UNK         0.0541 
    132 H132       35.9523   -0.0857   -6.5589 H         1 UNK         0.3459 
    133 H133       34.6208    0.8353   -7.1988 H         1 UNK         0.3459 
    134 H134       33.2190   -2.9137   -8.9927 H         1 UNK         0.0612 
    135 H135       32.1619   -1.9082   -9.9255 H         1 UNK         0.0612 
    136 H136       33.1523   -2.3937   -5.8539 H         1 UNK         0.0624 
    137 H137       32.7260   -3.7247   -6.9052 H         1 UNK         0.0624 
@<TRIPOS>BOND
     1    1    2 1    
     2    1   72 1    
     3    1   73 1    
     4    1   74 1    
     5    2    3 2    
     6    2    4 am   BACKBONE|DICT|INTERRES
     7    4    5 1    
     8    4   75 1    
     9    5    6 1    
    10    5   35 1    
    11    5   76 1    
    12    6    7 1    
    13    6   77 1    
    14    6   78 1    
    15    7    8 1    
    16    8    9 1    
    17    8   79 1    
    18    8   80 1    
    19    9   10 ar   
    20    9   14 ar   
    21   10   11 ar   
    22   10   81 1    
    23   11   12 ar   
    24   11   71 1    
    25   12   13 ar   
    26   12   82 1    
    27   13   14 ar   
    28   13   15 1    
    29   14   83 1    
    30   15   16 1    
    31   15   84 1    
    32   15   85 1    
    33   16   17 1    
    34   17   18 1    
    35   17   86 1    
    36   17   87 1    
    37   18   19 1    
    38   18   37 1    
    39   18   88 1    
    40   19   20 am   BACKBONE|DICT|INTERRES
    41   19   89 1    
    42   20   21 2    
    43   20   22 1    
    44   22   23 1    
    45   22   24 1    
    46   22   90 1    
    47   23   91 1    
    48   23   92 1    
    49   23   93 1    
    50   24   25 am   BACKBONE|DICT|INTERRES
    51   24   94 1    
    52   25   26 2    
    53   25   27 1    
    54   27   28 1    
    55   27   29 1    
    56   27   95 1    
    57   28   96 1    
    58   28   97 1    
    59   28   98 1    
    60   29   30 am   BACKBONE|DICT|INTERRES
    61   29   99 1    
    62   30   31 2    
    63   30   32 1    
    64   32   33 1    
    65   32   34 1    
    66   32  100 1    
    67   33  101 1    
    68   33  102 1    
    69   33  103 1    
    70   34   35 am   BACKBONE|DICT|INTERRES
    71   34  104 1    
    72   35   36 2    
    73   37   38 2    
    74   37   39 am   BACKBONE|DICT|INTERRES
    75   39   40 1    
    76   39  105 1    
    77   40   41 1    
    78   40   42 1    
    79   40  106 1    
    80   41  107 1    
    81   41  108 1    
    82   41  109 1    
    83   42   43 2    
    84   42   44 am   BACKBONE|DICT|INTERRES
    85   44   45 1    
    86   44  110 1    
    87   45   46 1    
    88   45   47 1    
    89   45  111 1    
    90   46  112 1    
    91   46  113 1    
    92   46  114 1    
    93   47   48 2    
    94   47   49 am   BACKBONE|DICT|INTERRES
    95   49   50 1    
    96   49  115 1    
    97   50   51 1    
    98   50   52 1    
    99   50  116 1    
   100   51  117 1    
   101   51  118 1    
   102   51  119 1    
   103   52   53 2    
   104   52   54 am   BACKBONE|DICT|INTERRES
   105   54   55 1    
   106   54  120 1    
   107   55   56 1    
   108   55   57 1    
   109   55  121 1    
   110   56  122 1    
   111   56  123 1    
   112   56  124 1    
   113   57   58 2    
   114   57   59 am   BACKBONE|DICT|INTERRES
   115   59   60 1    
   116   59  125 1    
   117   60   61 1    
   118   60   62 1    
   119   60  126 1    
   120   61  127 1    
   121   61  128 1    
   122   61  129 1    
   123   62   63 2    
   124   62   64 am   BACKBONE|DICT|INTERRES
   125   64   65 1    
   126   64  130 1    
   127   65   66 1    
   128   65   69 1    
   129   65  131 1    
   130   66   67 am   BACKBONE|DICT|INTERRES
   131   66   68 2    
   132   67  132 1    
   133   67  133 1    
   134   69   70 1    
   135   69  134 1    
   136   69  135 1    
   137   70   71 1    
   138   71  136 1    
   139   71  137 1    
@<TRIPOS>SUBSTRUCTURE
     1 UNK         1 GROUP             0       ****    0 ROOT    
