@<TRIPOS>MOLECULE
3R137
137   139    1
SMALL
USER_CHARGES


@<TRIPOS>ATOM
      1 CA         26.0838    1.5699    2.6618 C.3       0 UNK        -0.2020 
      2 C          26.1999    1.2302    1.1830 C.2       0 UNK         0.4855 
      3 O          25.8393    2.0518    0.3397 O.2       0 UNK        -0.5197 
      4 N          26.7079    0.0318    0.8689 N.am      1 UNK        -0.4892 
      5 CA         26.8349   -0.4995   -0.4893 C.3       1 UNK         0.0835 
      6 C6         28.2083   -1.1935   -0.6913 C.3       12 UNK        -0.0855 
      7 S7         28.5385   -1.5475   -2.4473 S.3       12 UNK        -0.2931 
      8 C8         29.9571   -2.6830   -2.3152 C.3       12 UNK         0.0378 
      9 C9         30.3397   -3.2363   -3.6803 C.ar      12 UNK        -0.0802 
     10 C10        31.6049   -3.0005   -4.2296 C.ar      12 UNK        -0.0944 
     11 C11        31.9380   -3.5181   -5.4864 C.ar      12 UNK        -0.0787 
     12 C12        30.9807   -4.2376   -6.2113 C.ar      12 UNK        -0.0862 
     13 C13        29.7154   -4.4838   -5.6688 C.ar      12 UNK        -0.0733 
     14 C14        29.4161   -4.0048   -4.3915 C.ar      12 UNK        -0.0832 
     15 C15        28.6846   -5.2988   -6.4398 C.3       12 UNK         0.0240 
     16 S16        27.6565   -4.2737   -7.5440 S.3       12 UNK        -0.2522 
     17 C17        26.6153   -3.3357   -6.3637 C.3       12 UNK        -0.0967 
     18 CA         26.5568   -1.7969   -6.5627 C.3       5 UNK         0.0660 
     19 N          25.7985   -1.1525   -5.4801 N.am      5 UNK        -0.4015 
     20 C          25.4609    0.1484   -5.4281 C.2       4 UNK         0.4946 
     21 O          25.8452    0.9780   -6.2544 O.2       4 UNK        -0.5353 
     22 CA         24.5585    0.6109   -4.2612 C.3       4 UNK         0.0277 
     23 CB         23.7800    1.9023   -4.5900 C.3       4 UNK        -0.1981 
     24 N          23.6506   -0.4311   -3.7660 N.am      4 UNK        -0.4209 
     25 C          22.7377   -1.1223   -4.4707 C.2       3 UNK         0.4942 
     26 O          22.4318   -0.8606   -5.6350 O.2       3 UNK        -0.5208 
     27 CA         22.0833   -2.3362   -3.7700 C.3       3 UNK         0.0250 
     28 CB         21.7328   -3.4617   -4.7669 C.3       3 UNK        -0.1990 
     29 N          22.8684   -2.8792   -2.6494 N.am      3 UNK        -0.4232 
     30 C          24.1387   -3.3110   -2.6873 C.2       2 UNK         0.4993 
     31 O          24.8344   -3.3338   -3.7048 O.2       2 UNK        -0.5286 
     32 CA         24.7767   -3.6761   -1.3382 C.3       2 UNK         0.0209 
     33 CB         25.4181   -5.0730   -1.3936 C.3       2 UNK        -0.1931 
     34 N          25.7986   -2.6945   -0.9635 N.am      2 UNK        -0.4546 
     35 C          25.6008   -1.3786   -0.7908 C.2       1 UNK         0.5154 
     36 O          24.4912   -0.8468   -0.8766 O.2       1 UNK        -0.5181 
     37 C          27.9264   -1.1337   -6.8353 C.2       5 UNK         0.5014 
     38 O          28.3075   -1.0278   -8.0012 O.2       5 UNK        -0.5248 
     39 N          28.5963   -0.6110   -5.7959 N.am      6 UNK        -0.4434 
     40 CA         29.8377    0.1621   -5.9151 C.3       6 UNK         0.0363 
     41 CB         30.3318    0.5958   -4.5258 C.3       6 UNK        -0.1936 
     42 C          29.7445    1.3965   -6.8284 C.2       6 UNK         0.5081 
     43 O          30.7498    1.7472   -7.4439 O.2       6 UNK        -0.5248 
     44 N          28.5648    2.0271   -6.9221 N.am      7 UNK        -0.4718 
     45 CA         28.3308    3.1708   -7.8078 C.3       7 UNK         0.0273 
     46 CB         27.0840    3.9401   -7.3430 C.3       7 UNK        -0.1935 
     47 C          28.1922    2.7510   -9.2806 C.2       7 UNK         0.5018 
     48 O          28.5893    3.5128  -10.1623 O.2       7 UNK        -0.5186 
     49 N          27.6466    1.5508   -9.5209 N.am      8 UNK        -0.4240 
     50 CA         27.4976    0.9593  -10.8514 C.3       8 UNK         0.0235 
     51 CB         26.3614   -0.0771  -10.8294 C.3       8 UNK        -0.2000 
     52 C          28.8093    0.3238  -11.3362 C.2       8 UNK         0.4941 
     53 O          29.1917    0.5218  -12.4896 O.2       8 UNK        -0.5273 
     54 N          29.4781   -0.4169  -10.4427 N.am      9 UNK        -0.4262 
     55 CA         30.7470   -1.1032  -10.6928 C.3       9 UNK         0.0264 
     56 CB         30.9061   -2.2261   -9.6545 C.3       9 UNK        -0.1955 
     57 C          31.9735   -0.1698  -10.6853 C.2       9 UNK         0.5031 
     58 O          33.0390   -0.5929  -11.1361 O.2       9 UNK        -0.5390 
     59 N          31.8070    1.0636  -10.1822 N.am      10 UNK        -0.4204 
     60 CA         32.8248    2.1071  -10.0019 C.3       10 UNK         0.0237 
     61 CB         33.3941    2.5785  -11.3575 C.3       10 UNK        -0.1985 
     62 C          33.9105    1.6930   -8.9890 C.2       10 UNK         0.4970 
     63 O          35.1025    1.8817   -9.2405 O.2       10 UNK        -0.4914 
     64 N          33.4632    1.1363   -7.8583 N.am      11 UNK        -0.4285 
     65 CA         34.3047    0.6993   -6.7335 C.3       11 UNK         0.1007 
     66 C          34.5914    1.8274   -5.7021 C.2       11 UNK         0.5703 
     67 N          33.9309    2.9780   -5.7709 N.am      11 UNK        -0.7361 
     68 O          35.4393    1.6593   -4.8289 O.2       11 UNK        -0.4986 
     69 C69        33.7260   -0.5585   -6.0322 C.3       12 UNK        -0.0947 
     70 S70        33.4971   -1.9529   -7.1824 S.3       12 UNK        -0.2240 
     71 C71        33.3480   -3.3576   -6.0396 C.3       12 UNK         0.0194 
     72 H72        25.0426    1.7587    2.9221 H         1 UNK         0.0906 
     73 H73        26.4511    0.7643    3.2973 H         1 UNK         0.0906 
     74 H74        26.6592    2.4675    2.8868 H         1 UNK         0.0906 
     75 H75        26.9578   -0.6057    1.6125 H         1 UNK         0.3140 
     76 H76        26.7910    0.3289   -1.2004 H         1 UNK         0.1085 
     77 H77        29.0047   -0.5333   -0.3429 H         1 UNK         0.0836 
     78 H78        28.2952   -2.1025   -0.0932 H         1 UNK         0.0836 
     79 H79        29.7053   -3.5118   -1.6521 H         1 UNK         0.0731 
     80 H80        30.7963   -2.1563   -1.8581 H         1 UNK         0.0731 
     81 H81        32.3372   -2.4315   -3.6735 H         1 UNK         0.1312 
     82 H82        31.2295   -4.6264   -7.1894 H         1 UNK         0.1406 
     83 H83        28.4549   -4.2143   -3.9437 H         1 UNK         0.1631 
     84 H84        28.0397   -5.8479   -5.7519 H         1 UNK         0.0717 
     85 H85        29.1932   -6.0535   -7.0414 H         1 UNK         0.0717 
     86 H86        25.6044   -3.7411   -6.4319 H         1 UNK         0.0934 
     87 H87        26.9315   -3.5560   -5.3479 H         1 UNK         0.0934 
     88 H88        25.9720   -1.6252   -7.4689 H         1 UNK         0.0739 
     89 H89        25.4341   -1.7813   -4.7690 H         1 UNK         0.3093 
     90 H90        25.2345    0.8373   -3.4355 H         1 UNK         0.0818 
     91 H91        23.1676    2.2221   -3.7472 H         1 UNK         0.0819 
     92 H92        24.4605    2.7223   -4.8233 H         1 UNK         0.0819 
     93 H93        23.1248    1.7703   -5.4515 H         1 UNK         0.0819 
     94 H94        23.8037   -0.7098   -2.8011 H         1 UNK         0.3041 
     95 H95        21.1500   -1.9678   -3.3415 H         1 UNK         0.0784 
     96 H96        21.0359   -3.1108   -5.5290 H         1 UNK         0.0793 
     97 H97        22.6190   -3.8333   -5.2829 H         1 UNK         0.0793 
     98 H98        21.2598   -4.3049   -4.2636 H         1 UNK         0.0793 
     99 H99        22.4076   -2.8460   -1.7498 H         1 UNK         0.3024 
    100 H100       24.0072   -3.6798   -0.5631 H         1 UNK         0.1171 
    101 H101       25.8281   -5.3611   -0.4255 H         1 UNK         0.0786 
    102 H102       24.6820   -5.8288   -1.6708 H         1 UNK         0.0786 
    103 H103       26.2243   -5.1199   -2.1273 H         1 UNK         0.0786 
    104 H104       26.7490   -3.0333   -0.9345 H         1 UNK         0.2977 
    105 H105       28.2361   -0.7538   -4.8624 H         1 UNK         0.3127 
    106 H106       30.5815   -0.5042   -6.3560 H         1 UNK         0.0770 
    107 H107       29.5540    1.1114   -3.9617 H         1 UNK         0.0814 
    108 H108       31.1818    1.2762   -4.6005 H         1 UNK         0.0814 
    109 H109       30.6672   -0.2582   -3.9409 H         1 UNK         0.0814 
    110 H110       27.7552    1.6513   -6.4372 H         1 UNK         0.2983 
    111 H111       29.1880    3.8444   -7.7362 H         1 UNK         0.0947 
    112 H112       26.9336    4.8362   -7.9466 H         1 UNK         0.0806 
    113 H113       27.1780    4.2601   -6.3052 H         1 UNK         0.0806 
    114 H114       26.1794    3.3371   -7.4276 H         1 UNK         0.0806 
    115 H115       27.3959    0.9713   -8.7301 H         1 UNK         0.3000 
    116 H116       27.2234    1.7458  -11.5582 H         1 UNK         0.0850 
    117 H117       26.2162   -0.5156  -11.8176 H         1 UNK         0.0810 
    118 H118       25.4158    0.3787  -10.5352 H         1 UNK         0.0810 
    119 H119       26.5677   -0.8949  -10.1377 H         1 UNK         0.0810 
    120 H120       29.0575   -0.5710   -9.5246 H         1 UNK         0.3040 
    121 H121       30.6994   -1.5622  -11.6824 H         1 UNK         0.0766 
    122 H122       30.9103   -1.8329   -8.6374 H         1 UNK         0.0812 
    123 H123       31.8398   -2.7708   -9.8001 H         1 UNK         0.0812 
    124 H124       30.0931   -2.9493   -9.7232 H         1 UNK         0.0812 
    125 H125       30.9002    1.2788   -9.7898 H         1 UNK         0.3205 
    126 H126       32.3061    2.9570   -9.5555 H         1 UNK         0.0754 
    127 H127       34.0470    3.4422  -11.2262 H         1 UNK         0.0769 
    128 H128       32.5972    2.8758  -12.0393 H         1 UNK         0.0769 
    129 H129       33.9812    1.8006  -11.8463 H         1 UNK         0.0769 
    130 H130       32.4581    1.1045   -7.7087 H         1 UNK         0.2981 
    131 H131       35.2801    0.4163   -7.1336 H         1 UNK         0.0541 
    132 H132       33.2266    3.1210   -6.4770 H         1 UNK         0.3459 
    133 H133       34.1314    3.7034   -5.1009 H         1 UNK         0.3459 
    134 H134       32.7714   -0.3362   -5.5590 H         1 UNK         0.0612 
    135 H135       34.3951   -0.8836   -5.2336 H         1 UNK         0.0612 
    136 H136       33.6281   -4.2652   -6.5763 H         1 UNK         0.0624 
    137 H137       34.0711   -3.2565   -5.2291 H         1 UNK         0.0624 
@<TRIPOS>BOND
     1    1    2 1    
     2    1   72 1    
     3    1   73 1    
     4    1   74 1    
     5    2    3 2    
     6    2    4 am   BACKBONE|DICT|INTERRES
     7    4    5 1    
     8    4   75 1    
     9    5    6 1    
    10    5   35 1    
    11    5   76 1    
    12    6    7 1    
    13    6   77 1    
    14    6   78 1    
    15    7    8 1    
    16    8    9 1    
    17    8   79 1    
    18    8   80 1    
    19    9   10 ar   
    20    9   14 ar   
    21   10   11 ar   
    22   10   81 1    
    23   11   12 ar   
    24   11   71 1    
    25   12   13 ar   
    26   12   82 1    
    27   13   14 ar   
    28   13   15 1    
    29   14   83 1    
    30   15   16 1    
    31   15   84 1    
    32   15   85 1    
    33   16   17 1    
    34   17   18 1    
    35   17   86 1    
    36   17   87 1    
    37   18   19 1    
    38   18   37 1    
    39   18   88 1    
    40   19   20 am   BACKBONE|DICT|INTERRES
    41   19   89 1    
    42   20   21 2    
    43   20   22 1    
    44   22   23 1    
    45   22   24 1    
    46   22   90 1    
    47   23   91 1    
    48   23   92 1    
    49   23   93 1    
    50   24   25 am   BACKBONE|DICT|INTERRES
    51   24   94 1    
    52   25   26 2    
    53   25   27 1    
    54   27   28 1    
    55   27   29 1    
    56   27   95 1    
    57   28   96 1    
    58   28   97 1    
    59   28   98 1    
    60   29   30 am   BACKBONE|DICT|INTERRES
    61   29   99 1    
    62   30   31 2    
    63   30   32 1    
    64   32   33 1    
    65   32   34 1    
    66   32  100 1    
    67   33  101 1    
    68   33  102 1    
    69   33  103 1    
    70   34   35 am   BACKBONE|DICT|INTERRES
    71   34  104 1    
    72   35   36 2    
    73   37   38 2    
    74   37   39 am   BACKBONE|DICT|INTERRES
    75   39   40 1    
    76   39  105 1    
    77   40   41 1    
    78   40   42 1    
    79   40  106 1    
    80   41  107 1    
    81   41  108 1    
    82   41  109 1    
    83   42   43 2    
    84   42   44 am   BACKBONE|DICT|INTERRES
    85   44   45 1    
    86   44  110 1    
    87   45   46 1    
    88   45   47 1    
    89   45  111 1    
    90   46  112 1    
    91   46  113 1    
    92   46  114 1    
    93   47   48 2    
    94   47   49 am   BACKBONE|DICT|INTERRES
    95   49   50 1    
    96   49  115 1    
    97   50   51 1    
    98   50   52 1    
    99   50  116 1    
   100   51  117 1    
   101   51  118 1    
   102   51  119 1    
   103   52   53 2    
   104   52   54 am   BACKBONE|DICT|INTERRES
   105   54   55 1    
   106   54  120 1    
   107   55   56 1    
   108   55   57 1    
   109   55  121 1    
   110   56  122 1    
   111   56  123 1    
   112   56  124 1    
   113   57   58 2    
   114   57   59 am   BACKBONE|DICT|INTERRES
   115   59   60 1    
   116   59  125 1    
   117   60   61 1    
   118   60   62 1    
   119   60  126 1    
   120   61  127 1    
   121   61  128 1    
   122   61  129 1    
   123   62   63 2    
   124   62   64 am   BACKBONE|DICT|INTERRES
   125   64   65 1    
   126   64  130 1    
   127   65   66 1    
   128   65   69 1    
   129   65  131 1    
   130   66   67 am   BACKBONE|DICT|INTERRES
   131   66   68 2    
   132   67  132 1    
   133   67  133 1    
   134   69   70 1    
   135   69  134 1    
   136   69  135 1    
   137   70   71 1    
   138   71  136 1    
   139   71  137 1    
@<TRIPOS>SUBSTRUCTURE
     1 UNK         1 GROUP             0       ****    0 ROOT    
