@<TRIPOS>MOLECULE
3R137
137   139    1
SMALL
USER_CHARGES


@<TRIPOS>ATOM
      1 CA         24.9537   -3.9218   -3.1742 C.3       0 UNK        -0.2020 
      2 C          26.0320   -2.9150   -2.8043 C.2       0 UNK         0.4855 
      3 O          26.2940   -1.9998   -3.5886 O.2       0 UNK        -0.5197 
      4 N          26.6283   -3.0782   -1.6128 N.am      1 UNK        -0.4892 
      5 CA         27.8127   -2.3826   -1.0736 C.3       1 UNK         0.0835 
      6 C6         29.1405   -2.9915   -1.5964 C.3       12 UNK        -0.0855 
      7 S7         29.3106   -4.7353   -1.0794 S.3       12 UNK        -0.2931 
      8 C8         30.9879   -5.1386   -1.6737 C.3       12 UNK         0.0378 
      9 C9         31.1315   -5.0127   -3.1861 C.ar      12 UNK        -0.0802 
     10 C10        32.2145   -4.3146   -3.7309 C.ar      12 UNK        -0.0944 
     11 C11        32.3462   -4.1762   -5.1161 C.ar      12 UNK        -0.0787 
     12 C12        31.3833   -4.7397   -5.9579 C.ar      12 UNK        -0.0862 
     13 C13        30.2817   -5.4146   -5.4249 C.ar      12 UNK        -0.0733 
     14 C14        30.1793   -5.5772   -4.0417 C.ar      12 UNK        -0.0832 
     15 C15        29.1633   -5.8980   -6.3383 C.3       12 UNK         0.0240 
     16 S16        27.6084   -4.9837   -6.0458 S.3       12 UNK        -0.2522 
     17 C17        28.1638   -3.2436   -6.1064 C.3       12 UNK        -0.0967 
     18 CA         27.2551   -2.3465   -6.9740 C.3       5 UNK         0.0660 
     19 N          25.8646   -2.2995   -6.5148 N.am      5 UNK        -0.4015 
     20 C          24.8377   -1.9908   -7.3189 C.2       4 UNK         0.4946 
     21 O          24.9597   -1.7551   -8.5218 O.2       4 UNK        -0.5353 
     22 CA         23.4316   -1.9255   -6.6956 C.3       4 UNK         0.0277 
     23 CB         22.7879   -3.3219   -6.6928 C.3       4 UNK        -0.1981 
     24 N          23.3472   -1.3525   -5.3474 N.am      4 UNK        -0.4209 
     25 C          23.8301   -0.1641   -4.9589 C.2       3 UNK         0.4942 
     26 O          24.5360    0.5531   -5.6655 O.2       3 UNK        -0.5208 
     27 CA         23.4646    0.3237   -3.5515 C.3       3 UNK         0.0250 
     28 CB         22.3901   -0.5168   -2.8275 C.3       3 UNK        -0.1990 
     29 N          24.6790    0.3801   -2.7453 N.am      3 UNK        -0.4232 
     30 C          24.9348    1.2970   -1.8030 C.2       2 UNK         0.4993 
     31 O          24.1695    2.2228   -1.5277 O.2       2 UNK        -0.5286 
     32 CA         26.2482    1.1346   -1.0178 C.3       2 UNK         0.0209 
     33 CB         26.1904    1.7803    0.3802 C.3       2 UNK        -0.1931 
     34 N          26.5791   -0.2843   -0.8798 N.am      2 UNK        -0.4546 
     35 C          27.7504   -0.8441   -1.2024 C.2       1 UNK         0.5154 
     36 O          28.7298   -0.2057   -1.5911 O.2       1 UNK        -0.5181 
     37 C          27.8329   -0.9254   -7.0688 C.2       5 UNK         0.5014 
     38 O          28.4273   -0.5890   -8.0919 O.2       5 UNK        -0.5248 
     39 N          27.6130   -0.1077   -6.0272 N.am      6 UNK        -0.4434 
     40 CA         28.0612    1.2885   -5.9484 C.3       6 UNK         0.0363 
     41 CB         27.7070    1.8651   -4.5702 C.3       6 UNK        -0.1936 
     42 C          27.4960    2.1803   -7.0688 C.2       6 UNK         0.5081 
     43 O          28.1945    3.0715   -7.5515 O.2       6 UNK        -0.5248 
     44 N          26.2514    1.9050   -7.4791 N.am      7 UNK        -0.4718 
     45 CA         25.5825    2.5300   -8.6197 C.3       7 UNK         0.0273 
     46 CB         24.0909    2.1597   -8.5875 C.3       7 UNK        -0.1935 
     47 C          26.1994    2.1492   -9.9783 C.2       7 UNK         0.5018 
     48 O          26.0913    2.9373  -10.9189 O.2       7 UNK        -0.5186 
     49 N          26.8210    0.9641  -10.0694 N.am      8 UNK        -0.4240 
     50 CA         27.5099    0.4893  -11.2694 C.3       8 UNK         0.0235 
     51 CB         27.5163   -1.0485  -11.3066 C.3       8 UNK        -0.2000 
     52 C          28.9342    1.0571  -11.3576 C.2       8 UNK         0.4941 
     53 O          29.3196    1.5344  -12.4261 O.2       8 UNK        -0.5273 
     54 N          29.6829    1.0200  -10.2469 N.am      9 UNK        -0.4262 
     55 CA         31.0298    1.5775  -10.1377 C.3       9 UNK         0.0264 
     56 CB         32.0612    0.6126  -10.7534 C.3       9 UNK        -0.1955 
     57 C          31.3579    1.8370   -8.6659 C.2       9 UNK         0.5031 
     58 O          31.0420    1.0041   -7.8159 O.2       9 UNK        -0.5390 
     59 N          32.0509    2.9476   -8.3863 N.am      10 UNK        -0.4204 
     60 CA         32.5191    3.3310   -7.0495 C.3       10 UNK         0.0237 
     61 CB         32.7222    4.8575   -7.0095 C.3       10 UNK        -0.1985 
     62 C          33.7845    2.5489   -6.6376 C.2       10 UNK         0.4970 
     63 O          34.8212    3.1510   -6.3522 O.2       10 UNK        -0.4914 
     64 N          33.6803    1.2164   -6.6423 N.am      11 UNK        -0.4285 
     65 CA         34.7518    0.2657   -6.3108 C.3       11 UNK         0.1007 
     66 C          35.0674    0.1213   -4.7925 C.2       11 UNK         0.5703 
     67 N          34.2887    0.7059   -3.8897 N.am      11 UNK        -0.7361 
     68 O          36.0486   -0.5230   -4.4290 O.2       11 UNK        -0.4986 
     69 C69        34.5134   -1.1030   -7.0021 C.3       12 UNK        -0.0947 
     70 S70        32.9303   -1.8853   -6.5382 S.3       12 UNK        -0.2240 
     71 C71        33.5106   -3.3962   -5.7078 C.3       12 UNK         0.0194 
     72 H72        25.2182   -4.4275   -4.1022 H         1 UNK         0.0906 
     73 H73        24.8246   -4.6823   -2.4045 H         1 UNK         0.0906 
     74 H74        23.9977   -3.4229   -3.3183 H         1 UNK         0.0906 
     75 H75        26.3156   -3.8458   -1.0341 H         1 UNK         0.3140 
     76 H76        27.7909   -2.5571    0.0038 H         1 UNK         0.1085 
     77 H77        30.0032   -2.4452   -1.2101 H         1 UNK         0.0836 
     78 H78        29.1899   -2.9245   -2.6849 H         1 UNK         0.0836 
     79 H79        31.7040   -4.4953   -1.1599 H         1 UNK         0.0731 
     80 H80        31.2277   -6.1622   -1.3833 H         1 UNK         0.0731 
     81 H81        32.9515   -3.8696   -3.0761 H         1 UNK         0.1312 
     82 H82        31.4700   -4.6068   -7.0279 H         1 UNK         0.1406 
     83 H83        29.3255   -6.0978   -3.6293 H         1 UNK         0.1631 
     84 H84        28.9903   -6.9619   -6.1710 H         1 UNK         0.0717 
     85 H85        29.4436   -5.7907   -7.3873 H         1 UNK         0.0717 
     86 H86        28.2380   -2.8703   -5.0842 H         1 UNK         0.0934 
     87 H87        29.1766   -3.2049   -6.5093 H         1 UNK         0.0934 
     88 H88        27.2667   -2.7643   -7.9836 H         1 UNK         0.0739 
     89 H89        25.7122   -2.4205   -5.5208 H         1 UNK         0.3093 
     90 H90        22.8328   -1.2812   -7.3429 H         1 UNK         0.0818 
     91 H91        21.7430   -3.2792   -6.3852 H         1 UNK         0.0819 
     92 H92        22.8101   -3.7641   -7.6901 H         1 UNK         0.0819 
     93 H93        23.3095   -4.0063   -6.0227 H         1 UNK         0.0819 
     94 H94        22.7725   -1.8567   -4.6889 H         1 UNK         0.3041 
     95 H95        23.0703    1.3335   -3.6848 H         1 UNK         0.0784 
     96 H96        21.4803   -0.6012   -3.4236 H         1 UNK         0.0793 
     97 H97        22.7392   -1.5222   -2.5932 H         1 UNK         0.0793 
     98 H98        22.1041   -0.0473   -1.8859 H         1 UNK         0.0793 
     99 H99        25.3789   -0.3269   -2.9535 H         1 UNK         0.3024 
    100 H100       27.0160    1.6502   -1.5983 H         1 UNK         0.1171 
    101 H101       25.9992    2.8520    0.3116 H         1 UNK         0.0786 
    102 H102       27.1340    1.6563    0.9118 H         1 UNK         0.0786 
    103 H103       25.4004    1.3441    0.9926 H         1 UNK         0.0786 
    104 H104       25.8238   -0.8922   -0.5926 H         1 UNK         0.2977 
    105 H105       27.0884   -0.4647   -5.2393 H         1 UNK         0.3127 
    106 H106       29.1479    1.2874   -6.0452 H         1 UNK         0.0770 
    107 H107       26.6295    1.8798   -4.4052 H         1 UNK         0.0814 
    108 H108       28.1674    1.2846   -3.7718 H         1 UNK         0.0814 
    109 H109       28.0660    2.8905   -4.4734 H         1 UNK         0.0814 
    110 H110       25.7131    1.2207   -6.9505 H         1 UNK         0.2983 
    111 H111       25.6724    3.6129   -8.5109 H         1 UNK         0.0947 
    112 H112       23.5526    2.6265   -9.4136 H         1 UNK         0.0806 
    113 H113       23.6196    2.4936   -7.6628 H         1 UNK         0.0806 
    114 H114       23.9434    1.0816   -8.6667 H         1 UNK         0.0806 
    115 H115       26.9191    0.3968   -9.2357 H         1 UNK         0.3000 
    116 H116       26.9587    0.8337  -12.1474 H         1 UNK         0.0850 
    117 H117       27.9460   -1.4100  -12.2415 H         1 UNK         0.0810 
    118 H118       26.5052   -1.4505  -11.2359 H         1 UNK         0.0810 
    119 H119       28.1027   -1.4790  -10.4954 H         1 UNK         0.0810 
    120 H120       29.3141    0.5976   -9.3950 H         1 UNK         0.3040 
    121 H121       31.0605    2.5290  -10.6731 H         1 UNK         0.0766 
    122 H122       33.0738    1.0061  -10.6559 H         1 UNK         0.0812 
    123 H123       31.8777    0.4538  -11.8161 H         1 UNK         0.0812 
    124 H124       32.0405   -0.3606  -10.2606 H         1 UNK         0.0812 
    125 H125       32.3185    3.5576   -9.1457 H         1 UNK         0.3205 
    126 H126       31.7407    3.0851   -6.3235 H         1 UNK         0.0754 
    127 H127       33.0311    5.1853   -6.0159 H         1 UNK         0.0769 
    128 H128       31.7991    5.3860   -7.2489 H         1 UNK         0.0769 
    129 H129       33.4885    5.1833   -7.7141 H         1 UNK         0.0769 
    130 H130       32.7844    0.8096   -6.8978 H         1 UNK         0.2981 
    131 H131       35.6685    0.6691   -6.7449 H         1 UNK         0.0541 
    132 H132       33.4791    1.2300   -4.1781 H         1 UNK         0.3459 
    133 H133       34.5086    0.6097   -2.9112 H         1 UNK         0.3459 
    134 H134       35.3420   -1.7856   -6.8051 H         1 UNK         0.0612 
    135 H135       34.5033   -0.9640   -8.0842 H         1 UNK         0.0612 
    136 H136       34.2287   -3.1250   -4.9321 H         1 UNK         0.0624 
    137 H137       34.0421   -4.0231   -6.4250 H         1 UNK         0.0624 
@<TRIPOS>BOND
     1    1    2 1    
     2    1   72 1    
     3    1   73 1    
     4    1   74 1    
     5    2    3 2    
     6    2    4 am   BACKBONE|DICT|INTERRES
     7    4    5 1    
     8    4   75 1    
     9    5    6 1    
    10    5   35 1    
    11    5   76 1    
    12    6    7 1    
    13    6   77 1    
    14    6   78 1    
    15    7    8 1    
    16    8    9 1    
    17    8   79 1    
    18    8   80 1    
    19    9   10 ar   
    20    9   14 ar   
    21   10   11 ar   
    22   10   81 1    
    23   11   12 ar   
    24   11   71 1    
    25   12   13 ar   
    26   12   82 1    
    27   13   14 ar   
    28   13   15 1    
    29   14   83 1    
    30   15   16 1    
    31   15   84 1    
    32   15   85 1    
    33   16   17 1    
    34   17   18 1    
    35   17   86 1    
    36   17   87 1    
    37   18   19 1    
    38   18   37 1    
    39   18   88 1    
    40   19   20 am   BACKBONE|DICT|INTERRES
    41   19   89 1    
    42   20   21 2    
    43   20   22 1    
    44   22   23 1    
    45   22   24 1    
    46   22   90 1    
    47   23   91 1    
    48   23   92 1    
    49   23   93 1    
    50   24   25 am   BACKBONE|DICT|INTERRES
    51   24   94 1    
    52   25   26 2    
    53   25   27 1    
    54   27   28 1    
    55   27   29 1    
    56   27   95 1    
    57   28   96 1    
    58   28   97 1    
    59   28   98 1    
    60   29   30 am   BACKBONE|DICT|INTERRES
    61   29   99 1    
    62   30   31 2    
    63   30   32 1    
    64   32   33 1    
    65   32   34 1    
    66   32  100 1    
    67   33  101 1    
    68   33  102 1    
    69   33  103 1    
    70   34   35 am   BACKBONE|DICT|INTERRES
    71   34  104 1    
    72   35   36 2    
    73   37   38 2    
    74   37   39 am   BACKBONE|DICT|INTERRES
    75   39   40 1    
    76   39  105 1    
    77   40   41 1    
    78   40   42 1    
    79   40  106 1    
    80   41  107 1    
    81   41  108 1    
    82   41  109 1    
    83   42   43 2    
    84   42   44 am   BACKBONE|DICT|INTERRES
    85   44   45 1    
    86   44  110 1    
    87   45   46 1    
    88   45   47 1    
    89   45  111 1    
    90   46  112 1    
    91   46  113 1    
    92   46  114 1    
    93   47   48 2    
    94   47   49 am   BACKBONE|DICT|INTERRES
    95   49   50 1    
    96   49  115 1    
    97   50   51 1    
    98   50   52 1    
    99   50  116 1    
   100   51  117 1    
   101   51  118 1    
   102   51  119 1    
   103   52   53 2    
   104   52   54 am   BACKBONE|DICT|INTERRES
   105   54   55 1    
   106   54  120 1    
   107   55   56 1    
   108   55   57 1    
   109   55  121 1    
   110   56  122 1    
   111   56  123 1    
   112   56  124 1    
   113   57   58 2    
   114   57   59 am   BACKBONE|DICT|INTERRES
   115   59   60 1    
   116   59  125 1    
   117   60   61 1    
   118   60   62 1    
   119   60  126 1    
   120   61  127 1    
   121   61  128 1    
   122   61  129 1    
   123   62   63 2    
   124   62   64 am   BACKBONE|DICT|INTERRES
   125   64   65 1    
   126   64  130 1    
   127   65   66 1    
   128   65   69 1    
   129   65  131 1    
   130   66   67 am   BACKBONE|DICT|INTERRES
   131   66   68 2    
   132   67  132 1    
   133   67  133 1    
   134   69   70 1    
   135   69  134 1    
   136   69  135 1    
   137   70   71 1    
   138   71  136 1    
   139   71  137 1    
@<TRIPOS>SUBSTRUCTURE
     1 UNK         1 GROUP             0       ****    0 ROOT    
