@<TRIPOS>MOLECULE
3R137
137   139    1
SMALL
USER_CHARGES


@<TRIPOS>ATOM
      1 CA         27.1383   -6.2118   -4.8738 C.3       0 UNK        -0.2020 
      2 C          26.9507   -5.9375   -3.3900 C.2       0 UNK         0.4855 
      3 O          25.9830   -6.4184   -2.8000 O.2       0 UNK        -0.5197 
      4 N          27.8756   -5.1846   -2.7784 N.am      1 UNK        -0.4892 
      5 CA         27.8941   -4.8975   -1.3353 C.3       1 UNK         0.0835 
      6 C6         29.2628   -4.3533   -0.8537 C.3       12 UNK        -0.0855 
      7 S7         30.6675   -5.3984   -1.3887 S.3       12 UNK        -0.2931 
      8 C8         32.0182   -4.1907   -1.6135 C.3       12 UNK         0.0378 
      9 C9         31.6398   -3.0551   -2.5550 C.ar      12 UNK        -0.0802 
     10 C10        31.5210   -1.7515   -2.0633 C.ar      12 UNK        -0.0944 
     11 C11        31.1218   -0.7053   -2.8989 C.ar      12 UNK        -0.0787 
     12 C12        30.8257   -0.9811   -4.2387 C.ar      12 UNK        -0.0862 
     13 C13        30.9798   -2.2722   -4.7530 C.ar      12 UNK        -0.0733 
     14 C14        31.3903   -3.3061   -3.9072 C.ar      12 UNK        -0.0832 
     15 C15        30.7207   -2.5427   -6.2275 C.3       12 UNK         0.0240 
     16 S16        29.2260   -3.5462   -6.5155 S.3       12 UNK        -0.2522 
     17 C17        27.9041   -2.5538   -5.7443 C.3       12 UNK        -0.0967 
     18 CA         27.2145   -1.5812   -6.7323 C.3       5 UNK         0.0660 
     19 N          25.8394   -1.2823   -6.3288 N.am      5 UNK        -0.4015 
     20 C          24.9243   -0.6894   -7.1100 C.2       4 UNK         0.4946 
     21 O          25.1262   -0.3782   -8.2829 O.2       4 UNK        -0.5353 
     22 CA         23.5731   -0.3353   -6.4623 C.3       4 UNK         0.0277 
     23 CB         22.6044   -1.5249   -6.5512 C.3       4 UNK        -0.1981 
     24 N          23.7043    0.0888   -5.0658 N.am      4 UNK        -0.4209 
     25 C          24.3869    1.1716   -4.6659 C.2       3 UNK         0.4942 
     26 O          24.8845    1.9834   -5.4448 O.2       3 UNK        -0.5208 
     27 CA         24.6038    1.3560   -3.1519 C.3       3 UNK         0.0250 
     28 CB         23.5604    2.3274   -2.5781 C.3       3 UNK        -0.1990 
     29 N          24.5950    0.1120   -2.3690 N.am      3 UNK        -0.4232 
     30 C          25.4056   -0.9385   -2.5625 C.2       2 UNK         0.4993 
     31 O          26.2384   -1.0053   -3.4720 O.2       2 UNK        -0.5286 
     32 CA         25.2098   -2.1313   -1.6194 C.3       2 UNK         0.0209 
     33 CB         23.8684   -2.8389   -1.8942 C.3       2 UNK        -0.1931 
     34 N          26.3042   -3.0791   -1.8095 N.am      2 UNK        -0.4546 
     35 C          26.7530   -3.9522   -0.8993 C.2       1 UNK         0.5154 
     36 O          26.2995   -4.0377    0.2433 O.2       1 UNK        -0.5181 
     37 C          28.0218   -0.2824   -6.8966 C.2       5 UNK         0.5014 
     38 O          28.7213   -0.1254   -7.8979 O.2       5 UNK        -0.5248 
     39 N          27.8803    0.6408   -5.9331 N.am      6 UNK        -0.4434 
     40 CA         28.5014    1.9686   -5.9566 C.3       6 UNK         0.0363 
     41 CB         28.1980    2.7080   -4.6442 C.3       6 UNK        -0.1936 
     42 C          28.0703    2.8129   -7.1700 C.2       6 UNK         0.5081 
     43 O          28.8942    3.5407   -7.7222 O.2       6 UNK        -0.5248 
     44 N          26.8014    2.6806   -7.5759 N.am      7 UNK        -0.4718 
     45 CA         26.2519    3.2936   -8.7820 C.3       7 UNK         0.0273 
     46 CB         24.7159    3.2892   -8.7044 C.3       7 UNK        -0.1935 
     47 C          26.7410    2.6106  -10.0717 C.2       7 UNK         0.5018 
     48 O          27.2141    3.3038  -10.9732 O.2       7 UNK        -0.5186 
     49 N          26.5820    1.2816  -10.1591 N.am      8 UNK        -0.4240 
     50 CA         26.8027    0.5180  -11.3903 C.3       8 UNK         0.0235 
     51 CB         25.9965   -0.7906  -11.3385 C.3       8 UNK        -0.2000 
     52 C          28.2785    0.2188  -11.6932 C.2       8 UNK         0.4941 
     53 O          28.6989    0.3924  -12.8383 O.2       8 UNK        -0.5273 
     54 N          29.0199   -0.2707  -10.6920 N.am      9 UNK        -0.4262 
     55 CA         30.3802   -0.7967  -10.8480 C.3       9 UNK         0.0264 
     56 CB         30.4436   -2.1983  -10.2180 C.3       9 UNK        -0.1955 
     57 C          31.4499    0.1120  -10.2246 C.2       9 UNK         0.5031 
     58 O          32.5827    0.1001  -10.7091 O.2       9 UNK        -0.5390 
     59 N          31.0711    0.8677   -9.1833 N.am      10 UNK        -0.4204 
     60 CA         31.8958    1.7163   -8.3132 C.3       10 UNK         0.0237 
     61 CB         32.7937    2.6922   -9.1018 C.3       10 UNK        -0.1985 
     62 C          32.6959    0.8984   -7.2854 C.2       10 UNK         0.4970 
     63 O          33.0303   -0.2646   -7.5205 O.2       10 UNK        -0.4914 
     64 N          32.9571    1.5299   -6.1374 N.am      11 UNK        -0.4285 
     65 CA         33.6345    0.9263   -4.9816 C.3       11 UNK         0.1007 
     66 C          35.1653    0.7823   -5.1909 C.2       11 UNK         0.5703 
     67 N          35.7909   -0.1872   -4.5367 N.am      11 UNK        -0.7361 
     68 O          35.7961    1.5598   -5.9057 O.2       11 UNK        -0.4986 
     69 C69        33.3139    1.6871   -3.6649 C.3       12 UNK        -0.0947 
     70 S70        31.5335    2.0358   -3.4398 S.3       12 UNK        -0.2240 
     71 C71        30.9895    0.7018   -2.3203 C.3       12 UNK         0.0194 
     72 H72        26.4292   -5.6290   -5.4606 H         1 UNK         0.0906 
     73 H73        28.1469   -5.9681   -5.2051 H         1 UNK         0.0906 
     74 H74        26.9666   -7.2670   -5.0847 H         1 UNK         0.0906 
     75 H75        28.6699   -4.8394   -3.2990 H         1 UNK         0.3140 
     76 H76        27.7215   -5.8452   -0.8197 H         1 UNK         0.1085 
     77 H77        29.2846   -4.2932    0.2362 H         1 UNK         0.0836 
     78 H78        29.3973   -3.3327   -1.2117 H         1 UNK         0.0836 
     79 H79        32.3084   -3.8038   -0.6354 H         1 UNK         0.0731 
     80 H80        32.8936   -4.7076   -2.0091 H         1 UNK         0.0731 
     81 H81        31.7236   -1.5534   -1.0194 H         1 UNK         0.1312 
     82 H82        30.5031   -0.1826   -4.8911 H         1 UNK         0.1406 
     83 H83        31.4948   -4.3101   -4.2964 H         1 UNK         0.1631 
     84 H84        31.5795   -3.0669   -6.6486 H         1 UNK         0.0717 
     85 H85        30.6456   -1.6083   -6.7833 H         1 UNK         0.0717 
     86 H86        27.1703   -3.2705   -5.3754 H         1 UNK         0.0934 
     87 H87        28.2704   -2.0442   -4.8521 H         1 UNK         0.0934 
     88 H88        27.1591   -2.0622   -7.7117 H         1 UNK         0.0739 
     89 H89        25.6322   -1.4121   -5.3449 H         1 UNK         0.3093 
     90 H90        23.1469    0.4978   -7.0255 H         1 UNK         0.0818 
     91 H91        21.6163   -1.2613   -6.1736 H         1 UNK         0.0819 
     92 H92        22.4779   -1.8466   -7.5861 H         1 UNK         0.0819 
     93 H93        22.9632   -2.3850   -5.9843 H         1 UNK         0.0819 
     94 H94        23.3092   -0.5160   -4.3610 H         1 UNK         0.3041 
     95 H95        25.5908    1.8049   -3.0251 H         1 UNK         0.0784 
     96 H96        23.5637    3.2716   -3.1252 H         1 UNK         0.0793 
     97 H97        22.5508    1.9191   -2.6394 H         1 UNK         0.0793 
     98 H98        23.7667    2.5618   -1.5336 H         1 UNK         0.0793 
     99 H99        23.9312    0.0726   -1.6084 H         1 UNK         0.3024 
    100 H100       25.2299   -1.7573   -0.5930 H         1 UNK         0.1171 
    101 H101       23.0222   -2.1675   -1.7444 H         1 UNK         0.0786 
    102 H102       23.7237   -3.6865   -1.2238 H         1 UNK         0.0786 
    103 H103       23.8143   -3.2142   -2.9171 H         1 UNK         0.0786 
    104 H104       26.7688   -3.0133   -2.7057 H         1 UNK         0.2977 
    105 H105       27.2812    0.4277   -5.1463 H         1 UNK         0.3127 
    106 H106       29.5805    1.8197   -6.0194 H         1 UNK         0.0770 
    107 H107       27.1478    2.9871   -4.5660 H         1 UNK         0.0814 
    108 H108       28.7805    3.6278   -4.5788 H         1 UNK         0.0814 
    109 H109       28.4507    2.1024   -3.7742 H         1 UNK         0.0814 
    110 H110       26.1664    2.1318   -7.0046 H         1 UNK         0.2983 
    111 H111       26.5817    4.3346   -8.8144 H         1 UNK         0.0947 
    112 H112       24.2788    3.7588   -9.5866 H         1 UNK         0.0806 
    113 H113       24.3634    3.8422   -7.8335 H         1 UNK         0.0806 
    114 H114       24.3141    2.2776   -8.6391 H         1 UNK         0.0806 
    115 H115       26.1612    0.7780   -9.3810 H         1 UNK         0.3000 
    116 H116       26.4131    1.1053  -12.2251 H         1 UNK         0.0850 
    117 H117       26.1093   -1.3571  -12.2639 H         1 UNK         0.0810 
    118 H118       24.9322   -0.5952  -11.2057 H         1 UNK         0.0810 
    119 H119       26.3212   -1.4345  -10.5200 H         1 UNK         0.0810 
    120 H120       28.6223   -0.3201   -9.7572 H         1 UNK         0.3040 
    121 H121       30.6262   -0.9007  -11.9070 H         1 UNK         0.0766 
    122 H122       31.4452   -2.6221  -10.3032 H         1 UNK         0.0812 
    123 H123       29.7568   -2.8858  -10.7118 H         1 UNK         0.0812 
    124 H124       30.1883   -2.1756   -9.1588 H         1 UNK         0.0812 
    125 H125       30.1300    0.7035   -8.8337 H         1 UNK         0.3205 
    126 H126       31.1829    2.3197   -7.7532 H         1 UNK         0.0754 
    127 H127       33.2342    3.4366   -8.4376 H         1 UNK         0.0769 
    128 H128       32.2248    3.2311   -9.8596 H         1 UNK         0.0769 
    129 H129       33.6194    2.1814   -9.5974 H         1 UNK         0.0769 
    130 H130       32.6797    2.4932   -6.0244 H         1 UNK         0.2981 
    131 H131       33.2473   -0.0873   -4.8787 H         1 UNK         0.0541 
    132 H132       35.2861   -0.8235   -3.9397 H         1 UNK         0.3459 
    133 H133       36.7876   -0.2885   -4.6476 H         1 UNK         0.3459 
    134 H134       33.8349    2.6461   -3.6469 H         1 UNK         0.0612 
    135 H135       33.6791    1.1275   -2.8020 H         1 UNK         0.0612 
    136 H136       29.9427    0.8702   -2.0651 H         1 UNK         0.0624 
    137 H137       31.5520    0.7883   -1.3894 H         1 UNK         0.0624 
@<TRIPOS>BOND
     1    1    2 1    
     2    1   72 1    
     3    1   73 1    
     4    1   74 1    
     5    2    3 2    
     6    2    4 am   BACKBONE|DICT|INTERRES
     7    4    5 1    
     8    4   75 1    
     9    5    6 1    
    10    5   35 1    
    11    5   76 1    
    12    6    7 1    
    13    6   77 1    
    14    6   78 1    
    15    7    8 1    
    16    8    9 1    
    17    8   79 1    
    18    8   80 1    
    19    9   10 ar   
    20    9   14 ar   
    21   10   11 ar   
    22   10   81 1    
    23   11   12 ar   
    24   11   71 1    
    25   12   13 ar   
    26   12   82 1    
    27   13   14 ar   
    28   13   15 1    
    29   14   83 1    
    30   15   16 1    
    31   15   84 1    
    32   15   85 1    
    33   16   17 1    
    34   17   18 1    
    35   17   86 1    
    36   17   87 1    
    37   18   19 1    
    38   18   37 1    
    39   18   88 1    
    40   19   20 am   BACKBONE|DICT|INTERRES
    41   19   89 1    
    42   20   21 2    
    43   20   22 1    
    44   22   23 1    
    45   22   24 1    
    46   22   90 1    
    47   23   91 1    
    48   23   92 1    
    49   23   93 1    
    50   24   25 am   BACKBONE|DICT|INTERRES
    51   24   94 1    
    52   25   26 2    
    53   25   27 1    
    54   27   28 1    
    55   27   29 1    
    56   27   95 1    
    57   28   96 1    
    58   28   97 1    
    59   28   98 1    
    60   29   30 am   BACKBONE|DICT|INTERRES
    61   29   99 1    
    62   30   31 2    
    63   30   32 1    
    64   32   33 1    
    65   32   34 1    
    66   32  100 1    
    67   33  101 1    
    68   33  102 1    
    69   33  103 1    
    70   34   35 am   BACKBONE|DICT|INTERRES
    71   34  104 1    
    72   35   36 2    
    73   37   38 2    
    74   37   39 am   BACKBONE|DICT|INTERRES
    75   39   40 1    
    76   39  105 1    
    77   40   41 1    
    78   40   42 1    
    79   40  106 1    
    80   41  107 1    
    81   41  108 1    
    82   41  109 1    
    83   42   43 2    
    84   42   44 am   BACKBONE|DICT|INTERRES
    85   44   45 1    
    86   44  110 1    
    87   45   46 1    
    88   45   47 1    
    89   45  111 1    
    90   46  112 1    
    91   46  113 1    
    92   46  114 1    
    93   47   48 2    
    94   47   49 am   BACKBONE|DICT|INTERRES
    95   49   50 1    
    96   49  115 1    
    97   50   51 1    
    98   50   52 1    
    99   50  116 1    
   100   51  117 1    
   101   51  118 1    
   102   51  119 1    
   103   52   53 2    
   104   52   54 am   BACKBONE|DICT|INTERRES
   105   54   55 1    
   106   54  120 1    
   107   55   56 1    
   108   55   57 1    
   109   55  121 1    
   110   56  122 1    
   111   56  123 1    
   112   56  124 1    
   113   57   58 2    
   114   57   59 am   BACKBONE|DICT|INTERRES
   115   59   60 1    
   116   59  125 1    
   117   60   61 1    
   118   60   62 1    
   119   60  126 1    
   120   61  127 1    
   121   61  128 1    
   122   61  129 1    
   123   62   63 2    
   124   62   64 am   BACKBONE|DICT|INTERRES
   125   64   65 1    
   126   64  130 1    
   127   65   66 1    
   128   65   69 1    
   129   65  131 1    
   130   66   67 am   BACKBONE|DICT|INTERRES
   131   66   68 2    
   132   67  132 1    
   133   67  133 1    
   134   69   70 1    
   135   69  134 1    
   136   69  135 1    
   137   70   71 1    
   138   71  136 1    
   139   71  137 1    
@<TRIPOS>SUBSTRUCTURE
     1 UNK         1 GROUP             0       ****    0 ROOT    
