@<TRIPOS>MOLECULE
3R137
137   139    1
SMALL
USER_CHARGES


@<TRIPOS>ATOM
      1 CA         28.3424   -5.0949    1.5196 C.3       0 UNK        -0.2020 
      2 C          27.9742   -4.0246    0.5029 C.2       0 UNK         0.4855 
      3 O          27.4412   -4.3528   -0.5573 O.2       0 UNK        -0.5197 
      4 N          28.2717   -2.7554    0.8171 N.am      1 UNK        -0.4892 
      5 CA         27.9689   -1.5601    0.0146 C.3       1 UNK         0.0835 
      6 C6         28.7414   -1.5041   -1.3363 C.3       12 UNK        -0.0855 
      7 S7         30.5525   -1.4613   -1.1198 S.3       12 UNK        -0.2931 
      8 C8         31.0385   -3.1739   -1.5044 C.3       12 UNK         0.0378 
      9 C9         31.0567   -3.4728   -2.9983 C.ar      12 UNK        -0.0802 
     10 C10        32.1053   -2.9953   -3.7900 C.ar      12 UNK        -0.0944 
     11 C11        32.1967   -3.3497   -5.1387 C.ar      12 UNK        -0.0787 
     12 C12        31.2219   -4.1827   -5.6976 C.ar      12 UNK        -0.0862 
     13 C13        30.1640   -4.6690   -4.9194 C.ar      12 UNK        -0.0733 
     14 C14        30.0811   -4.2968   -3.5718 C.ar      12 UNK        -0.0832 
     15 C15        29.1864   -5.6974   -5.4865 C.3       12 UNK         0.0240 
     16 S16        28.5152   -5.2783   -7.1310 S.3       12 UNK        -0.2522 
     17 C17        27.0731   -4.2531   -6.6947 C.3       12 UNK        -0.0967 
     18 CA         26.8508   -3.0851   -7.6972 C.3       5 UNK         0.0660 
     19 N          25.5137   -2.4859   -7.6236 N.am      5 UNK        -0.4015 
     20 C          24.9592   -1.9242   -6.5422 C.2       4 UNK         0.4946 
     21 O          25.4828   -1.9235   -5.4236 O.2       4 UNK        -0.5353 
     22 CA         23.5993   -1.2429   -6.7408 C.3       4 UNK         0.0277 
     23 CB         22.4666   -2.2787   -6.8408 C.3       4 UNK        -0.1981 
     24 N          23.3703   -0.3908   -5.5814 N.am      4 UNK        -0.4209 
     25 C          22.9020    0.8605   -5.5763 C.2       3 UNK         0.4942 
     26 O          22.4844    1.4311   -6.5847 O.2       3 UNK        -0.5208 
     27 CA         22.8931    1.6081   -4.2229 C.3       3 UNK         0.0250 
     28 CB         21.5278    2.2696   -3.9619 C.3       3 UNK        -0.1990 
     29 N          23.2307    0.7563   -3.0742 N.am      3 UNK        -0.4232 
     30 C          24.4657    0.3658   -2.7322 C.2       2 UNK         0.4993 
     31 O          25.4899    0.7357   -3.3128 O.2       2 UNK        -0.5286 
     32 CA         24.5570   -0.6519   -1.5878 C.3       2 UNK         0.0209 
     33 CB         23.8839   -1.9868   -1.9716 C.3       2 UNK        -0.1931 
     34 N          25.9631   -0.8889   -1.2757 N.am      2 UNK        -0.4546 
     35 C          26.4380   -1.3576   -0.1161 C.2       1 UNK         0.5154 
     36 O          25.7128   -1.6094    0.8508 O.2       1 UNK        -0.5181 
     37 C          27.9252   -1.9853   -7.6177 C.2       5 UNK         0.5014 
     38 O          28.3967   -1.5293   -8.6599 O.2       5 UNK        -0.5248 
     39 N          28.2442   -1.5393   -6.3963 N.am      6 UNK        -0.4434 
     40 CA         29.2477   -0.5189   -6.0932 C.3       6 UNK         0.0363 
     41 CB         29.3259   -0.3292   -4.5749 C.3       6 UNK        -0.1936 
     42 C          28.9828    0.8293   -6.7736 C.2       6 UNK         0.5081 
     43 O          29.9255    1.4621   -7.2464 O.2       6 UNK        -0.5248 
     44 N          27.7056    1.2272   -6.8349 N.am      7 UNK        -0.4718 
     45 CA         27.2522    2.4538   -7.4930 C.3       7 UNK         0.0273 
     46 CB         25.8024    2.7396   -7.0731 C.3       7 UNK        -0.1935 
     47 C          27.3659    2.4017   -9.0273 C.2       7 UNK         0.5018 
     48 O          27.5431    3.4488   -9.6499 O.2       7 UNK        -0.5186 
     49 N          27.2612    1.1975   -9.6067 N.am      8 UNK        -0.4240 
     50 CA         27.3799    0.9590  -11.0459 C.3       8 UNK         0.0235 
     51 CB         26.5573   -0.2816  -11.4335 C.3       8 UNK        -0.2000 
     52 C          28.8479    0.7968  -11.4644 C.2       8 UNK         0.4941 
     53 O          29.2627    1.3810  -12.4655 O.2       8 UNK        -0.5273 
     54 N          29.6081    0.0176  -10.6833 N.am      9 UNK        -0.4262 
     55 CA         31.0324   -0.2502  -10.8938 C.3       9 UNK         0.0264 
     56 CB         31.4047   -1.5323  -10.1332 C.3       9 UNK        -0.1955 
     57 C          31.9549    0.9170  -10.4911 C.2       9 UNK         0.5031 
     58 O          33.1216    0.9097  -10.8866 O.2       9 UNK        -0.5390 
     59 N          31.4261    1.8832   -9.7245 N.am      10 UNK        -0.4204 
     60 CA         32.1023    3.0551   -9.1558 C.3       10 UNK         0.0237 
     61 CB         32.6278    3.9976  -10.2605 C.3       10 UNK        -0.1985 
     62 C          33.1738    2.6540   -8.1248 C.2       10 UNK         0.4970 
     63 O          34.3089    3.1308   -8.1870 O.2       10 UNK        -0.4914 
     64 N          32.7818    1.7754   -7.1944 N.am      11 UNK        -0.4285 
     65 CA         33.6323    1.2654   -6.1058 C.3       11 UNK         0.1007 
     66 C          33.8341    2.2664   -4.9313 C.2       11 UNK         0.5703 
     67 N          33.0823    3.3583   -4.8472 N.am      11 UNK        -0.7361 
     68 O          34.6987    2.0523   -4.0850 O.2       11 UNK        -0.4986 
     69 C69        33.1398   -0.1090   -5.5814 C.3       12 UNK        -0.0947 
     70 S70        33.0601   -1.3710   -6.8943 S.3       12 UNK        -0.2240 
     71 C71        33.3908   -2.9010   -5.9711 C.3       12 UNK         0.0194 
     72 H72        28.8244   -4.6733    2.4015 H         1 UNK         0.0906 
     73 H73        27.4482   -5.6269    1.8435 H         1 UNK         0.0906 
     74 H74        29.0255   -5.8168    1.0728 H         1 UNK         0.0906 
     75 H75        28.6915   -2.5627    1.7160 H         1 UNK         0.3140 
     76 H76        28.3066   -0.7110    0.6113 H         1 UNK         0.1085 
     77 H77        28.4579   -2.3278   -1.9934 H         1 UNK         0.0836 
     78 H78        28.4946   -0.5853   -1.8678 H         1 UNK         0.0836 
     79 H79        32.0381   -3.3435   -1.1015 H         1 UNK         0.0731 
     80 H80        30.3881   -3.8717   -0.9787 H         1 UNK         0.0731 
     81 H81        32.8692   -2.3728   -3.3446 H         1 UNK         0.1312 
     82 H82        31.3095   -4.4848   -6.7323 H         1 UNK         0.1406 
     83 H83        29.2855   -4.6904   -2.9525 H         1 UNK         0.1631 
     84 H84        28.3598   -5.8758   -4.7968 H         1 UNK         0.0717 
     85 H85        29.7157   -6.6473   -5.5714 H         1 UNK         0.0717 
     86 H86        26.2006   -4.9082   -6.6989 H         1 UNK         0.0934 
     87 H87        27.1671   -3.8991   -5.6670 H         1 UNK         0.0934 
     88 H88        26.9162   -3.5049   -8.7027 H         1 UNK         0.0739 
     89 H89        25.0135   -2.4411   -8.5004 H         1 UNK         0.3093 
     90 H90        23.6388   -0.6410   -7.6514 H         1 UNK         0.0818 
     91 H91        21.4966   -1.7922   -6.9460 H         1 UNK         0.0819 
     92 H92        22.5979   -2.9271   -7.7078 H         1 UNK         0.0819 
     93 H93        22.4250   -2.9172   -5.9572 H         1 UNK         0.0819 
     94 H94        23.8027   -0.7415   -4.7362 H         1 UNK         0.3041 
     95 H95        23.6423    2.3993   -4.2964 H         1 UNK         0.0784 
     96 H96        21.2708    2.9701   -4.7578 H         1 UNK         0.0793 
     97 H97        20.7263    1.5319   -3.9061 H         1 UNK         0.0793 
     98 H98        21.5316    2.8343   -3.0293 H         1 UNK         0.0793 
     99 H99        22.4471    0.3923   -2.5503 H         1 UNK         0.3024 
    100 H100       24.0606   -0.2225   -0.7143 H         1 UNK         0.1171 
    101 H101       22.8239   -1.8563   -2.1911 H         1 UNK         0.0786 
    102 H102       23.9517   -2.7131   -1.1614 H         1 UNK         0.0786 
    103 H103       24.3499   -2.4314   -2.8524 H         1 UNK         0.0786 
    104 H104       26.5938   -0.6230   -2.0215 H         1 UNK         0.2977 
    105 H105       27.7129   -1.9039   -5.6156 H         1 UNK         0.3127 
    106 H106       30.2081   -0.8900   -6.4522 H         1 UNK         0.0770 
    107 H107       28.3566   -0.0520   -4.1589 H         1 UNK         0.0814 
    108 H108       30.0307    0.4575   -4.3038 H         1 UNK         0.0814 
    109 H109       29.6588   -1.2443   -4.0882 H         1 UNK         0.0814 
    110 H110       27.0037    0.6528   -6.3901 H         1 UNK         0.2983 
    111 H111       27.8805    3.2769   -7.1448 H         1 UNK         0.0947 
    112 H112       25.4513    3.6812   -7.4976 H         1 UNK         0.0806 
    113 H113       25.7088    2.8182   -5.9896 H         1 UNK         0.0806 
    114 H114       25.1240    1.9571   -7.4145 H         1 UNK         0.0806 
    115 H115       27.1869    0.3826   -9.0135 H         1 UNK         0.3000 
    116 H116       26.9694    1.8152  -11.5863 H         1 UNK         0.0850 
    117 H117       26.6155   -0.4655  -12.5072 H         1 UNK         0.0810 
    118 H118       25.5039   -0.1508  -11.1852 H         1 UNK         0.0810 
    119 H119       26.9111   -1.1821  -10.9304 H         1 UNK         0.0810 
    120 H120       29.1693   -0.4710   -9.9030 H         1 UNK         0.3040 
    121 H121       31.1943   -0.4305  -11.9587 H         1 UNK         0.0766 
    122 H122       32.4714   -1.7472  -10.2111 H         1 UNK         0.0812 
    123 H123       30.8689   -2.3955  -10.5280 H         1 UNK         0.0812 
    124 H124       31.1610   -1.4501   -9.0741 H         1 UNK         0.0812 
    125 H125       30.4829    1.7350   -9.3882 H         1 UNK         0.3205 
    126 H126       31.3385    3.6019   -8.6006 H         1 UNK         0.0754 
    127 H127       33.0110    4.9239   -9.8307 H         1 UNK         0.0769 
    128 H128       31.8361    4.2677  -10.9594 H         1 UNK         0.0769 
    129 H129       33.4398    3.5464  -10.8313 H         1 UNK         0.0769 
    130 H130       31.8117    1.4717   -7.1959 H         1 UNK         0.2981 
    131 H131       34.6280    1.1057   -6.5241 H         1 UNK         0.0541 
    132 H132       32.3687    3.5412   -5.5335 H         1 UNK         0.3459 
    133 H133       33.2284    4.0005   -4.0846 H         1 UNK         0.3459 
    134 H134       32.1544   -0.0186   -5.1265 H         1 UNK         0.0612 
    135 H135       33.8064   -0.4711   -4.7969 H         1 UNK         0.0612 
    136 H136       33.6503   -3.6835   -6.6856 H         1 UNK         0.0624 
    137 H137       34.2714   -2.7679   -5.3409 H         1 UNK         0.0624 
@<TRIPOS>BOND
     1    1    2 1    
     2    1   72 1    
     3    1   73 1    
     4    1   74 1    
     5    2    3 2    
     6    2    4 am   BACKBONE|DICT|INTERRES
     7    4    5 1    
     8    4   75 1    
     9    5    6 1    
    10    5   35 1    
    11    5   76 1    
    12    6    7 1    
    13    6   77 1    
    14    6   78 1    
    15    7    8 1    
    16    8    9 1    
    17    8   79 1    
    18    8   80 1    
    19    9   10 ar   
    20    9   14 ar   
    21   10   11 ar   
    22   10   81 1    
    23   11   12 ar   
    24   11   71 1    
    25   12   13 ar   
    26   12   82 1    
    27   13   14 ar   
    28   13   15 1    
    29   14   83 1    
    30   15   16 1    
    31   15   84 1    
    32   15   85 1    
    33   16   17 1    
    34   17   18 1    
    35   17   86 1    
    36   17   87 1    
    37   18   19 1    
    38   18   37 1    
    39   18   88 1    
    40   19   20 am   BACKBONE|DICT|INTERRES
    41   19   89 1    
    42   20   21 2    
    43   20   22 1    
    44   22   23 1    
    45   22   24 1    
    46   22   90 1    
    47   23   91 1    
    48   23   92 1    
    49   23   93 1    
    50   24   25 am   BACKBONE|DICT|INTERRES
    51   24   94 1    
    52   25   26 2    
    53   25   27 1    
    54   27   28 1    
    55   27   29 1    
    56   27   95 1    
    57   28   96 1    
    58   28   97 1    
    59   28   98 1    
    60   29   30 am   BACKBONE|DICT|INTERRES
    61   29   99 1    
    62   30   31 2    
    63   30   32 1    
    64   32   33 1    
    65   32   34 1    
    66   32  100 1    
    67   33  101 1    
    68   33  102 1    
    69   33  103 1    
    70   34   35 am   BACKBONE|DICT|INTERRES
    71   34  104 1    
    72   35   36 2    
    73   37   38 2    
    74   37   39 am   BACKBONE|DICT|INTERRES
    75   39   40 1    
    76   39  105 1    
    77   40   41 1    
    78   40   42 1    
    79   40  106 1    
    80   41  107 1    
    81   41  108 1    
    82   41  109 1    
    83   42   43 2    
    84   42   44 am   BACKBONE|DICT|INTERRES
    85   44   45 1    
    86   44  110 1    
    87   45   46 1    
    88   45   47 1    
    89   45  111 1    
    90   46  112 1    
    91   46  113 1    
    92   46  114 1    
    93   47   48 2    
    94   47   49 am   BACKBONE|DICT|INTERRES
    95   49   50 1    
    96   49  115 1    
    97   50   51 1    
    98   50   52 1    
    99   50  116 1    
   100   51  117 1    
   101   51  118 1    
   102   51  119 1    
   103   52   53 2    
   104   52   54 am   BACKBONE|DICT|INTERRES
   105   54   55 1    
   106   54  120 1    
   107   55   56 1    
   108   55   57 1    
   109   55  121 1    
   110   56  122 1    
   111   56  123 1    
   112   56  124 1    
   113   57   58 2    
   114   57   59 am   BACKBONE|DICT|INTERRES
   115   59   60 1    
   116   59  125 1    
   117   60   61 1    
   118   60   62 1    
   119   60  126 1    
   120   61  127 1    
   121   61  128 1    
   122   61  129 1    
   123   62   63 2    
   124   62   64 am   BACKBONE|DICT|INTERRES
   125   64   65 1    
   126   64  130 1    
   127   65   66 1    
   128   65   69 1    
   129   65  131 1    
   130   66   67 am   BACKBONE|DICT|INTERRES
   131   66   68 2    
   132   67  132 1    
   133   67  133 1    
   134   69   70 1    
   135   69  134 1    
   136   69  135 1    
   137   70   71 1    
   138   71  136 1    
   139   71  137 1    
@<TRIPOS>SUBSTRUCTURE
     1 UNK         1 GROUP             0       ****    0 ROOT    
