@<TRIPOS>MOLECULE
3R137
137   139    1
SMALL
USER_CHARGES


@<TRIPOS>ATOM
      1 CA         27.6911   -6.7953   -1.5255 C.3       0 UNK        -0.2020 
      2 C          27.0802   -5.8414   -0.5097 C.2       0 UNK         0.4855 
      3 O          26.0312   -6.1407    0.0604 O.2       0 UNK        -0.5197 
      4 N          27.7310   -4.6932   -0.2799 N.am      1 UNK        -0.4892 
      5 CA         27.2846   -3.6275    0.6272 C.3       1 UNK         0.0835 
      6 C6         28.4321   -2.6319    0.9482 C.3       12 UNK        -0.0855 
      7 S7         29.0666   -1.7208   -0.5064 S.3       12 UNK        -0.2931 
      8 C8         30.5230   -2.7100   -0.9704 C.3       12 UNK         0.0378 
      9 C9         30.6446   -2.8107   -2.4829 C.ar      12 UNK        -0.0802 
     10 C10        31.6611   -2.1359   -3.1638 C.ar      12 UNK        -0.0944 
     11 C11        31.7669   -2.2309   -4.5551 C.ar      12 UNK        -0.0787 
     12 C12        30.8415   -3.0028   -5.2673 C.ar      12 UNK        -0.0862 
     13 C13        29.8210   -3.6850   -4.5959 C.ar      12 UNK        -0.0733 
     14 C14        29.7367   -3.5891   -3.2056 C.ar      12 UNK        -0.0832 
     15 C15        28.8283   -4.5516   -5.3610 C.3       12 UNK         0.0240 
     16 S16        27.0926   -4.0988   -5.0076 S.3       12 UNK        -0.2522 
     17 C17        26.4105   -3.9059   -6.6904 C.3       12 UNK        -0.0967 
     18 CA         26.3054   -2.4513   -7.2187 C.3       5 UNK         0.0660 
     19 N          25.1754   -1.6999   -6.6636 N.am      5 UNK        -0.4015 
     20 C          24.6269   -0.6467   -7.2910 C.2       4 UNK         0.4946 
     21 O          25.0176   -0.2221   -8.3793 O.2       4 UNK        -0.5353 
     22 CA         23.4670    0.0729   -6.5854 C.3       4 UNK         0.0277 
     23 CB         22.1657   -0.7365   -6.7085 C.3       4 UNK        -0.1981 
     24 N          23.7400    0.3602   -5.1774 N.am      4 UNK        -0.4209 
     25 C          24.7189    1.1634   -4.7353 C.2       3 UNK         0.4942 
     26 O          25.4965    1.7672   -5.4713 O.2       3 UNK        -0.5208 
     27 CA         24.8794    1.2921   -3.2113 C.3       3 UNK         0.0250 
     28 CB         24.0484    2.4707   -2.6797 C.3       3 UNK        -0.1990 
     29 N          24.5239    0.0708   -2.4823 N.am      3 UNK        -0.4232 
     30 C          25.1493   -1.1047   -2.6294 C.2       2 UNK         0.4993 
     31 O          26.0829   -1.2924   -3.4138 O.2       2 UNK        -0.5286 
     32 CA         24.6037   -2.2749   -1.8063 C.3       2 UNK         0.0209 
     33 CB         23.8588   -3.2692   -2.7132 C.3       2 UNK        -0.1931 
     34 N          25.7218   -2.9562   -1.1630 N.am      2 UNK        -0.4546 
     35 C          26.0079   -2.8990    0.1449 C.2       1 UNK         0.5154 
     36 O          25.3105   -2.3047    0.9695 O.2       1 UNK        -0.5181 
     37 C          27.6187   -1.6495   -7.1270 C.2       5 UNK         0.5014 
     38 O          28.4294   -1.7278   -8.0500 O.2       5 UNK        -0.5248 
     39 N          27.7839   -0.8563   -6.0567 N.am      6 UNK        -0.4434 
     40 CA         28.9038    0.0709   -5.8910 C.3       6 UNK         0.0363 
     41 CB         28.8910    0.6587   -4.4727 C.3       6 UNK        -0.1936 
     42 C          28.9168    1.1756   -6.9610 C.2       6 UNK         0.5081 
     43 O          29.9740    1.4589   -7.5245 O.2       6 UNK        -0.5248 
     44 N          27.7396    1.7410   -7.2663 N.am      7 UNK        -0.4718 
     45 CA         27.5373    2.7046   -8.3506 C.3       7 UNK         0.0273 
     46 CB         26.1302    3.3142   -8.2538 C.3       7 UNK        -0.1935 
     47 C          27.7703    2.0960   -9.7429 C.2       7 UNK         0.5018 
     48 O          28.3721    2.7592  -10.5872 O.2       7 UNK        -0.5186 
     49 N          27.3228    0.8479   -9.9526 N.am      8 UNK        -0.4240 
     50 CA         27.5546    0.0837  -11.1833 C.3       8 UNK         0.0235 
     51 CB         26.7014   -1.1944  -11.1804 C.3       8 UNK        -0.2000 
     52 C          29.0403   -0.2506  -11.4046 C.2       8 UNK         0.4941 
     53 O          29.5250   -0.1231  -12.5296 O.2       8 UNK        -0.5273 
     54 N          29.7406   -0.6423  -10.3298 N.am      9 UNK        -0.4262 
     55 CA         31.1912   -0.8553  -10.3108 C.3       9 UNK         0.0264 
     56 CB         31.5788   -1.5814   -9.0117 C.3       9 UNK        -0.1955 
     57 C          31.9964    0.4502  -10.4489 C.2       9 UNK         0.5031 
     58 O          33.1245    0.4088  -10.9419 O.2       9 UNK        -0.5390 
     59 N          31.4066    1.5675   -9.9988 N.am      10 UNK        -0.4204 
     60 CA         31.9619    2.9226   -9.9248 C.3       10 UNK         0.0237 
     61 CB         32.2646    3.4814  -11.3314 C.3       10 UNK        -0.1985 
     62 C          33.1567    3.0173   -8.9567 C.2       10 UNK         0.4970 
     63 O          34.0904    3.7834   -9.2046 O.2       10 UNK        -0.4914 
     64 N          33.1082    2.2298   -7.8755 N.am      11 UNK        -0.4285 
     65 CA         34.1204    2.2021   -6.8135 C.3       11 UNK         0.1007 
     66 C          33.9814    3.3815   -5.8093 C.2       11 UNK         0.5703 
     67 N          35.0045    3.6271   -5.0012 N.am      11 UNK        -0.7361 
     68 O          32.9639    4.0702   -5.7446 O.2       11 UNK        -0.4986 
     69 C69        34.1796    0.8138   -6.1228 C.3       12 UNK        -0.0947 
     70 S70        32.6068    0.2743   -5.3749 S.3       12 UNK        -0.2240 
     71 C71        32.8984   -1.5166   -5.2778 C.3       12 UNK         0.0194 
     72 H72        27.0846   -6.8162   -2.4308 H         1 UNK         0.0906 
     73 H73        28.7052   -6.5067   -1.8011 H         1 UNK         0.0906 
     74 H74        27.7294   -7.8051   -1.1176 H         1 UNK         0.0906 
     75 H75        28.6007   -4.5094   -0.7545 H         1 UNK         0.3140 
     76 H76        27.0082   -4.1110    1.5672 H         1 UNK         0.1085 
     77 H77        28.0925   -1.8972    1.6811 H         1 UNK         0.0836 
     78 H78        29.2549   -3.1571    1.4357 H         1 UNK         0.0836 
     79 H79        31.4138   -2.2542   -0.5353 H         1 UNK         0.0731 
     80 H80        30.4607   -3.7150   -0.5519 H         1 UNK         0.0731 
     81 H81        32.3720   -1.5337   -2.6145 H         1 UNK         0.1312 
     82 H82        30.9183   -3.0746   -6.3435 H         1 UNK         0.1406 
     83 H83        28.9436   -4.1105   -2.6936 H         1 UNK         0.1631 
     84 H84        29.0292   -4.4867   -6.4309 H         1 UNK         0.0717 
     85 H85        28.9814   -5.5957   -5.0850 H         1 UNK         0.0717 
     86 H86        26.9994   -4.5041   -7.3874 H         1 UNK         0.0934 
     87 H87        25.4218   -4.3674   -6.7016 H         1 UNK         0.0934 
     88 H88        26.1004   -2.5551   -8.2864 H         1 UNK         0.0739 
     89 H89        24.8531   -1.9656   -5.7444 H         1 UNK         0.3093 
     90 H90        23.3201    1.0292   -7.0926 H         1 UNK         0.0818 
     91 H91        21.3165   -0.1855   -6.3038 H         1 UNK         0.0819 
     92 H92        21.9393   -0.9524   -7.7538 H         1 UNK         0.0819 
     93 H93        22.2271   -1.6912   -6.1847 H         1 UNK         0.0819 
     94 H94        23.1461   -0.0862   -4.4945 H         1 UNK         0.3041 
     95 H95        25.9322    1.4999   -3.0101 H         1 UNK         0.0784 
     96 H96        24.3122    3.3960   -3.1943 H         1 UNK         0.0793 
     97 H97        22.9790    2.3113   -2.8242 H         1 UNK         0.0793 
     98 H98        24.2243    2.6333   -1.6162 H         1 UNK         0.0793 
     99 H99        23.7633    0.1446   -1.8215 H         1 UNK         0.3024 
    100 H100       23.9018   -1.8986   -1.0586 H         1 UNK         0.1171 
    101 H101       23.4695   -4.1100   -2.1386 H         1 UNK         0.0786 
    102 H102       23.0102   -2.7921   -3.2050 H         1 UNK         0.0786 
    103 H103       24.5055   -3.6720   -3.4932 H         1 UNK         0.0786 
    104 H104       26.3880   -3.3942   -1.7829 H         1 UNK         0.2977 
    105 H105       27.1050   -0.8977   -5.3039 H         1 UNK         0.3127 
    106 H106       29.8216   -0.5047   -6.0102 H         1 UNK         0.0770 
    107 H107       27.9906    1.2429   -4.2851 H         1 UNK         0.0814 
    108 H108       29.7479    1.3156   -4.3182 H         1 UNK         0.0814 
    109 H109       28.9460   -0.1290   -3.7200 H         1 UNK         0.0814 
    110 H110       26.9208    1.5063   -6.7096 H         1 UNK         0.2983 
    111 H111       28.2653    3.5082   -8.2186 H         1 UNK         0.0947 
    112 H112       25.9613    4.0390   -9.0513 H         1 UNK         0.0806 
    113 H113       25.9900    3.8358   -7.3069 H         1 UNK         0.0806 
    114 H114       25.3538    2.5524   -8.3326 H         1 UNK         0.0806 
    115 H115       26.7708    0.4000   -9.2274 H         1 UNK         0.3000 
    116 H116       27.2279    0.7044  -12.0204 H         1 UNK         0.0850 
    117 H117       26.8053   -1.7323  -12.1235 H         1 UNK         0.0810 
    118 H118       25.6431   -0.9665  -11.0513 H         1 UNK         0.0810 
    119 H119       26.9981   -1.8766  -10.3843 H         1 UNK         0.0810 
    120 H120       29.2436   -0.8154   -9.4573 H         1 UNK         0.3040 
    121 H121       31.4516   -1.4966  -11.1553 H         1 UNK         0.0766 
    122 H122       31.0790   -2.5470   -8.9340 H         1 UNK         0.0812 
    123 H123       31.3135   -0.9968   -8.1298 H         1 UNK         0.0812 
    124 H124       32.6531   -1.7662   -8.9707 H         1 UNK         0.0812 
    125 H125       30.5177    1.4532   -9.5233 H         1 UNK         0.3205 
    126 H126       31.1752    3.5407   -9.4895 H         1 UNK         0.0754 
    127 H127       32.5363    4.5365  -11.2827 H         1 UNK         0.0769 
    128 H128       31.3937    3.4015  -11.9824 H         1 UNK         0.0769 
    129 H129       33.0912    2.9547  -11.8091 H         1 UNK         0.0769 
    130 H130       32.2669    1.6948   -7.6994 H         1 UNK         0.2981 
    131 H131       35.0892    2.3436   -7.2969 H         1 UNK         0.0541 
    132 H132       35.8453    3.0724   -5.0389 H         1 UNK         0.3459 
    133 H133       34.9338    4.3843   -4.3397 H         1 UNK         0.3459 
    134 H134       34.4797    0.0677   -6.8604 H         1 UNK         0.0612 
    135 H135       34.9533    0.7946   -5.3536 H         1 UNK         0.0612 
    136 H136       33.8363   -1.7004   -4.7514 H         1 UNK         0.0624 
    137 H137       33.0244   -1.9158   -6.2851 H         1 UNK         0.0624 
@<TRIPOS>BOND
     1    1    2 1    
     2    1   72 1    
     3    1   73 1    
     4    1   74 1    
     5    2    3 2    
     6    2    4 am   BACKBONE|DICT|INTERRES
     7    4    5 1    
     8    4   75 1    
     9    5    6 1    
    10    5   35 1    
    11    5   76 1    
    12    6    7 1    
    13    6   77 1    
    14    6   78 1    
    15    7    8 1    
    16    8    9 1    
    17    8   79 1    
    18    8   80 1    
    19    9   10 ar   
    20    9   14 ar   
    21   10   11 ar   
    22   10   81 1    
    23   11   12 ar   
    24   11   71 1    
    25   12   13 ar   
    26   12   82 1    
    27   13   14 ar   
    28   13   15 1    
    29   14   83 1    
    30   15   16 1    
    31   15   84 1    
    32   15   85 1    
    33   16   17 1    
    34   17   18 1    
    35   17   86 1    
    36   17   87 1    
    37   18   19 1    
    38   18   37 1    
    39   18   88 1    
    40   19   20 am   BACKBONE|DICT|INTERRES
    41   19   89 1    
    42   20   21 2    
    43   20   22 1    
    44   22   23 1    
    45   22   24 1    
    46   22   90 1    
    47   23   91 1    
    48   23   92 1    
    49   23   93 1    
    50   24   25 am   BACKBONE|DICT|INTERRES
    51   24   94 1    
    52   25   26 2    
    53   25   27 1    
    54   27   28 1    
    55   27   29 1    
    56   27   95 1    
    57   28   96 1    
    58   28   97 1    
    59   28   98 1    
    60   29   30 am   BACKBONE|DICT|INTERRES
    61   29   99 1    
    62   30   31 2    
    63   30   32 1    
    64   32   33 1    
    65   32   34 1    
    66   32  100 1    
    67   33  101 1    
    68   33  102 1    
    69   33  103 1    
    70   34   35 am   BACKBONE|DICT|INTERRES
    71   34  104 1    
    72   35   36 2    
    73   37   38 2    
    74   37   39 am   BACKBONE|DICT|INTERRES
    75   39   40 1    
    76   39  105 1    
    77   40   41 1    
    78   40   42 1    
    79   40  106 1    
    80   41  107 1    
    81   41  108 1    
    82   41  109 1    
    83   42   43 2    
    84   42   44 am   BACKBONE|DICT|INTERRES
    85   44   45 1    
    86   44  110 1    
    87   45   46 1    
    88   45   47 1    
    89   45  111 1    
    90   46  112 1    
    91   46  113 1    
    92   46  114 1    
    93   47   48 2    
    94   47   49 am   BACKBONE|DICT|INTERRES
    95   49   50 1    
    96   49  115 1    
    97   50   51 1    
    98   50   52 1    
    99   50  116 1    
   100   51  117 1    
   101   51  118 1    
   102   51  119 1    
   103   52   53 2    
   104   52   54 am   BACKBONE|DICT|INTERRES
   105   54   55 1    
   106   54  120 1    
   107   55   56 1    
   108   55   57 1    
   109   55  121 1    
   110   56  122 1    
   111   56  123 1    
   112   56  124 1    
   113   57   58 2    
   114   57   59 am   BACKBONE|DICT|INTERRES
   115   59   60 1    
   116   59  125 1    
   117   60   61 1    
   118   60   62 1    
   119   60  126 1    
   120   61  127 1    
   121   61  128 1    
   122   61  129 1    
   123   62   63 2    
   124   62   64 am   BACKBONE|DICT|INTERRES
   125   64   65 1    
   126   64  130 1    
   127   65   66 1    
   128   65   69 1    
   129   65  131 1    
   130   66   67 am   BACKBONE|DICT|INTERRES
   131   66   68 2    
   132   67  132 1    
   133   67  133 1    
   134   69   70 1    
   135   69  134 1    
   136   69  135 1    
   137   70   71 1    
   138   71  136 1    
   139   71  137 1    
@<TRIPOS>SUBSTRUCTURE
     1 UNK         1 GROUP             0       ****    0 ROOT    
