@<TRIPOS>MOLECULE
3R137
137   139    1
SMALL
USER_CHARGES


@<TRIPOS>ATOM
      1 CA         23.6750   -5.0148   -6.7404 C.3       0 UNK        -0.2020 
      2 C          24.2059   -4.4630   -5.4269 C.2       0 UNK         0.4855 
      3 O          24.1622   -3.2523   -5.2132 O.2       0 UNK        -0.5197 
      4 N          24.6791   -5.3434   -4.5319 N.am      1 UNK        -0.4892 
      5 CA         25.3531   -5.0393   -3.2520 C.3       1 UNK         0.0835 
      6 C6         26.7209   -4.3240   -3.4510 C.3       12 UNK        -0.0855 
      7 S7         27.8582   -5.3240   -4.4726 S.3       12 UNK        -0.2931 
      8 C8         29.4452   -5.1398   -3.5911 C.3       12 UNK         0.0378 
      9 C9         30.1059   -3.7875   -3.8380 C.ar      12 UNK        -0.0802 
     10 C10        30.3088   -3.3321   -5.1453 C.ar      12 UNK        -0.0944 
     11 C11        30.9275   -2.1036   -5.3853 C.ar      12 UNK        -0.0787 
     12 C12        31.3738   -1.3407   -4.3042 C.ar      12 UNK        -0.0862 
     13 C13        31.1996   -1.7887   -2.9919 C.ar      12 UNK        -0.0733 
     14 C14        30.5544   -3.0094   -2.7639 C.ar      12 UNK        -0.0832 
     15 C15        31.7384   -0.9658   -1.8275 C.3       12 UNK         0.0240 
     16 S16        30.4926    0.1661   -1.1293 S.3       12 UNK        -0.2522 
     17 C17        30.2749    1.3730   -2.4827 C.3       12 UNK        -0.0967 
     18 CA         28.9865    1.0727   -3.2931 C.3       5 UNK         0.0660 
     19 N          27.7578    1.2001   -2.5003 N.am      5 UNK        -0.4015 
     20 C          27.2150    2.3211   -2.0079 C.2       4 UNK         0.4946 
     21 O          27.7022    3.4443   -2.1499 O.2       4 UNK        -0.5353 
     22 CA         25.8802    2.1468   -1.2534 C.3       4 UNK         0.0277 
     23 CB         25.3700    3.4654   -0.6411 C.3       4 UNK        -0.1981 
     24 N          24.8253    1.5800   -2.1029 N.am      4 UNK        -0.4209 
     25 C          24.7439    0.3003   -2.4891 C.2       3 UNK         0.4942 
     26 O          25.5905   -0.5519   -2.2070 O.2       3 UNK        -0.5208 
     27 CA         23.5554   -0.0752   -3.3872 C.3       3 UNK         0.0250 
     28 CB         23.9507    0.0441   -4.8691 C.3       3 UNK        -0.1990 
     29 N          23.1128   -1.4429   -3.1127 N.am      3 UNK        -0.4232 
     30 C          22.4605   -1.8164   -1.9996 C.2       2 UNK         0.4993 
     31 O          22.0503   -1.0206   -1.1531 O.2       2 UNK        -0.5286 
     32 CA         22.2167   -3.3224   -1.7801 C.3       2 UNK         0.0209 
     33 CB         20.7833   -3.7021   -2.1864 C.3       2 UNK        -0.1931 
     34 N          23.1612   -4.1647   -2.5149 N.am      2 UNK        -0.4546 
     35 C          24.4622   -4.3012   -2.2213 C.2       1 UNK         0.5154 
     36 O          24.9598   -3.8794   -1.1762 O.2       1 UNK        -0.5181 
     37 C          28.8944    1.8405   -4.6301 C.2       5 UNK         0.5014 
     38 O          29.8532    2.4875   -5.0543 O.2       5 UNK        -0.5248 
     39 N          27.7265    1.7321   -5.2751 N.am      6 UNK        -0.4434 
     40 CA         27.4154    2.3066   -6.5851 C.3       6 UNK         0.0363 
     41 CB         26.3931    3.4439   -6.4029 C.3       6 UNK        -0.1936 
     42 C          26.9113    1.2235   -7.5564 C.2       6 UNK         0.5081 
     43 O          26.2611    1.5521   -8.5487 O.2       6 UNK        -0.5248 
     44 N          27.2064   -0.0516   -7.2570 N.am      7 UNK        -0.4718 
     45 CA         26.7964   -1.2162   -8.0493 C.3       7 UNK         0.0273 
     46 CB         27.0107   -2.4907   -7.2171 C.3       7 UNK        -0.1935 
     47 C          27.5170   -1.3241   -9.4064 C.2       7 UNK         0.5018 
     48 O          26.9790   -1.9438  -10.3247 O.2       7 UNK        -0.5186 
     49 N          28.7033   -0.7150   -9.5140 N.am      8 UNK        -0.4240 
     50 CA         29.4969   -0.5946  -10.7298 C.3       8 UNK         0.0235 
     51 CB         30.3194   -1.8746  -10.9634 C.3       8 UNK        -0.2000 
     52 C          30.4129    0.6197  -10.5675 C.2       8 UNK         0.4941 
     53 O          30.8945    0.8724   -9.4594 O.2       8 UNK        -0.5273 
     54 N          30.6814    1.3239  -11.6746 N.am      9 UNK        -0.4262 
     55 CA         31.5329    2.5214  -11.7221 C.3       9 UNK         0.0264 
     56 CB         31.4299    3.1585  -13.1178 C.3       9 UNK        -0.1955 
     57 C          33.0079    2.2682  -11.3539 C.2       9 UNK         0.5031 
     58 O          33.7098    3.2115  -10.9879 O.2       9 UNK        -0.5390 
     59 N          33.4452    1.0052  -11.4422 N.am      10 UNK        -0.4204 
     60 CA         34.7713    0.5360  -11.0422 C.3       10 UNK         0.0237 
     61 CB         34.9980   -0.8645  -11.6369 C.3       10 UNK        -0.1985 
     62 C          34.9965    0.5097   -9.5174 C.2       10 UNK         0.4970 
     63 O          36.1529    0.4156   -9.1022 O.2       10 UNK        -0.4914 
     64 N          33.9237    0.5698   -8.7163 N.am      11 UNK        -0.4285 
     65 CA         33.9801    0.4594   -7.2503 C.3       11 UNK         0.1007 
     66 C          33.0141    1.4004   -6.4831 C.2       11 UNK         0.5703 
     67 N          31.9654    1.9413   -7.0881 N.am      11 UNK        -0.7361 
     68 O          33.2321    1.6536   -5.3010 O.2       11 UNK        -0.4986 
     69 C69        33.9028   -1.0156   -6.7536 C.3       12 UNK        -0.0947 
     70 S70        32.6551   -2.0695   -7.5812 S.3       12 UNK        -0.2240 
     71 C71        31.0784   -1.5895   -6.8089 C.3       12 UNK         0.0194 
     72 H72        22.6209   -4.7632   -6.8542 H         1 UNK         0.0906 
     73 H73        24.2213   -4.5772   -7.5755 H         1 UNK         0.0906 
     74 H74        23.7758   -6.0982   -6.7996 H         1 UNK         0.0906 
     75 H75        24.6582   -6.3266   -4.7669 H         1 UNK         0.3140 
     76 H76        25.5590   -6.0066   -2.7906 H         1 UNK         0.1085 
     77 H77        27.1976   -4.1282   -2.4889 H         1 UNK         0.0836 
     78 H78        26.5868   -3.3485   -3.9217 H         1 UNK         0.0836 
     79 H79        29.2922   -5.3186   -2.5257 H         1 UNK         0.0731 
     80 H80        30.1245   -5.9201   -3.9365 H         1 UNK         0.0731 
     81 H81        29.9730   -3.9338   -5.9789 H         1 UNK         0.1312 
     82 H82        31.8576   -0.3927   -4.4835 H         1 UNK         0.1406 
     83 H83        30.4172   -3.3585   -1.7493 H         1 UNK         0.1631 
     84 H84        32.6149   -0.3946   -2.1380 H         1 UNK         0.0717 
     85 H85        32.0821   -1.6344   -1.0369 H         1 UNK         0.0717 
     86 H86        30.2364    2.3774   -2.0581 H         1 UNK         0.0934 
     87 H87        31.1611    1.3579   -3.1190 H         1 UNK         0.0934 
     88 H88        29.0243    0.0232   -3.5867 H         1 UNK         0.0739 
     89 H89        27.2371    0.3395   -2.3418 H         1 UNK         0.3093 
     90 H90        26.0687    1.4537   -0.4303 H         1 UNK         0.0818 
     91 H91        24.4651    3.3072   -0.0541 H         1 UNK         0.0819 
     92 H92        26.1146    3.8991    0.0279 H         1 UNK         0.0819 
     93 H93        25.1484    4.2090   -1.4078 H         1 UNK         0.0819 
     94 H94        24.1111    2.2242   -2.4120 H         1 UNK         0.3041 
     95 H95        22.7238    0.6042   -3.1879 H         1 UNK         0.0784 
     96 H96        23.1280   -0.2452   -5.5233 H         1 UNK         0.0793 
     97 H97        24.2202    1.0695   -5.1232 H         1 UNK         0.0793 
     98 H98        24.8048   -0.5899   -5.1124 H         1 UNK         0.0793 
     99 H99        23.4492   -2.1582   -3.7523 H         1 UNK         0.3024 
    100 H100       22.3385   -3.5191   -0.7123 H         1 UNK         0.1171 
    101 H101       20.6059   -3.5316   -3.2491 H         1 UNK         0.0786 
    102 H102       20.0519   -3.1096   -1.6347 H         1 UNK         0.0786 
    103 H103       20.5747   -4.7508   -1.9738 H         1 UNK         0.0786 
    104 H104       22.8448   -4.5468   -3.3946 H         1 UNK         0.2977 
    105 H105       26.9892    1.1960   -4.8406 H         1 UNK         0.3127 
    106 H106       28.3162    2.7257   -7.0385 H         1 UNK         0.0770 
    107 H107       25.4440    3.0763   -6.0123 H         1 UNK         0.0814 
    108 H108       26.1860    3.9427   -7.3506 H         1 UNK         0.0814 
    109 H109       26.7666    4.2030   -5.7152 H         1 UNK         0.0814 
    110 H110       27.7629   -0.2363   -6.4361 H         1 UNK         0.2983 
    111 H111       25.7279   -1.1216   -8.2560 H         1 UNK         0.0947 
    112 H112       26.6434   -3.3703   -7.7473 H         1 UNK         0.0806 
    113 H113       26.4759   -2.4395   -6.2695 H         1 UNK         0.0806 
    114 H114       28.0625   -2.6624   -6.9946 H         1 UNK         0.0806 
    115 H115       29.0655   -0.1903   -8.7286 H         1 UNK         0.3000 
    116 H116       28.8282   -0.4255  -11.5769 H         1 UNK         0.0850 
    117 H117       31.0021   -2.0707  -10.1361 H         1 UNK         0.0810 
    118 H118       29.6749   -2.7464  -11.0762 H         1 UNK         0.0810 
    119 H119       30.9184   -1.7973  -11.8714 H         1 UNK         0.0810 
    120 H120       30.2559    1.0412  -12.5466 H         1 UNK         0.3040 
    121 H121       31.1406    3.2327  -10.9920 H         1 UNK         0.0766 
    122 H122       30.4020    3.4340  -13.3547 H         1 UNK         0.0812 
    123 H123       31.7870    2.4844  -13.8974 H         1 UNK         0.0812 
    124 H124       32.0275    4.0694  -13.1766 H         1 UNK         0.0812 
    125 H125       32.7955    0.3046  -11.7664 H         1 UNK         0.3205 
    126 H126       35.5138    1.2143  -11.4680 H         1 UNK         0.0754 
    127 H127       35.9956   -1.2350  -11.3965 H         1 UNK         0.0769 
    128 H128       34.9131   -0.8541  -12.7238 H         1 UNK         0.0769 
    129 H129       34.2802   -1.5887  -11.2487 H         1 UNK         0.0769 
    130 H130       32.9982    0.6502   -9.1182 H         1 UNK         0.2981 
    131 H131       34.9587    0.8309   -6.9396 H         1 UNK         0.0541 
    132 H132       31.3341    2.4903   -6.5178 H         1 UNK         0.3459 
    133 H133       31.6872    1.6746   -8.0276 H         1 UNK         0.3459 
    134 H134       34.8664   -1.4882   -6.9485 H         1 UNK         0.0612 
    135 H135       33.7822   -1.0744   -5.6718 H         1 UNK         0.0612 
    136 H136       30.9475   -0.5102   -6.8398 H         1 UNK         0.0624 
    137 H137       30.2781   -1.9951   -7.4275 H         1 UNK         0.0624 
@<TRIPOS>BOND
     1    1    2 1    
     2    1   72 1    
     3    1   73 1    
     4    1   74 1    
     5    2    3 2    
     6    2    4 am   BACKBONE|DICT|INTERRES
     7    4    5 1    
     8    4   75 1    
     9    5    6 1    
    10    5   35 1    
    11    5   76 1    
    12    6    7 1    
    13    6   77 1    
    14    6   78 1    
    15    7    8 1    
    16    8    9 1    
    17    8   79 1    
    18    8   80 1    
    19    9   10 ar   
    20    9   14 ar   
    21   10   11 ar   
    22   10   81 1    
    23   11   12 ar   
    24   11   71 1    
    25   12   13 ar   
    26   12   82 1    
    27   13   14 ar   
    28   13   15 1    
    29   14   83 1    
    30   15   16 1    
    31   15   84 1    
    32   15   85 1    
    33   16   17 1    
    34   17   18 1    
    35   17   86 1    
    36   17   87 1    
    37   18   19 1    
    38   18   37 1    
    39   18   88 1    
    40   19   20 am   BACKBONE|DICT|INTERRES
    41   19   89 1    
    42   20   21 2    
    43   20   22 1    
    44   22   23 1    
    45   22   24 1    
    46   22   90 1    
    47   23   91 1    
    48   23   92 1    
    49   23   93 1    
    50   24   25 am   BACKBONE|DICT|INTERRES
    51   24   94 1    
    52   25   26 2    
    53   25   27 1    
    54   27   28 1    
    55   27   29 1    
    56   27   95 1    
    57   28   96 1    
    58   28   97 1    
    59   28   98 1    
    60   29   30 am   BACKBONE|DICT|INTERRES
    61   29   99 1    
    62   30   31 2    
    63   30   32 1    
    64   32   33 1    
    65   32   34 1    
    66   32  100 1    
    67   33  101 1    
    68   33  102 1    
    69   33  103 1    
    70   34   35 am   BACKBONE|DICT|INTERRES
    71   34  104 1    
    72   35   36 2    
    73   37   38 2    
    74   37   39 am   BACKBONE|DICT|INTERRES
    75   39   40 1    
    76   39  105 1    
    77   40   41 1    
    78   40   42 1    
    79   40  106 1    
    80   41  107 1    
    81   41  108 1    
    82   41  109 1    
    83   42   43 2    
    84   42   44 am   BACKBONE|DICT|INTERRES
    85   44   45 1    
    86   44  110 1    
    87   45   46 1    
    88   45   47 1    
    89   45  111 1    
    90   46  112 1    
    91   46  113 1    
    92   46  114 1    
    93   47   48 2    
    94   47   49 am   BACKBONE|DICT|INTERRES
    95   49   50 1    
    96   49  115 1    
    97   50   51 1    
    98   50   52 1    
    99   50  116 1    
   100   51  117 1    
   101   51  118 1    
   102   51  119 1    
   103   52   53 2    
   104   52   54 am   BACKBONE|DICT|INTERRES
   105   54   55 1    
   106   54  120 1    
   107   55   56 1    
   108   55   57 1    
   109   55  121 1    
   110   56  122 1    
   111   56  123 1    
   112   56  124 1    
   113   57   58 2    
   114   57   59 am   BACKBONE|DICT|INTERRES
   115   59   60 1    
   116   59  125 1    
   117   60   61 1    
   118   60   62 1    
   119   60  126 1    
   120   61  127 1    
   121   61  128 1    
   122   61  129 1    
   123   62   63 2    
   124   62   64 am   BACKBONE|DICT|INTERRES
   125   64   65 1    
   126   64  130 1    
   127   65   66 1    
   128   65   69 1    
   129   65  131 1    
   130   66   67 am   BACKBONE|DICT|INTERRES
   131   66   68 2    
   132   67  132 1    
   133   67  133 1    
   134   69   70 1    
   135   69  134 1    
   136   69  135 1    
   137   70   71 1    
   138   71  136 1    
   139   71  137 1    
@<TRIPOS>SUBSTRUCTURE
     1 UNK         1 GROUP             0       ****    0 ROOT    
