@<TRIPOS>MOLECULE
3R137
137   139    1
SMALL
USER_CHARGES


@<TRIPOS>ATOM
      1 CA         24.7314   -6.3408   -3.8692 C.3       0 UNK        -0.2020 
      2 C          25.1797   -5.4449   -2.7251 C.2       0 UNK         0.4855 
      3 O          24.3459   -4.7949   -2.0934 O.2       0 UNK        -0.5197 
      4 N          26.4926   -5.3927   -2.4614 N.am      1 UNK        -0.4892 
      5 CA         27.1231   -4.5458   -1.4422 C.3       1 UNK         0.0835 
      6 C6         28.6357   -4.8536   -1.3317 C.3       12 UNK        -0.0855 
      7 S7         29.3833   -4.1626    0.1824 S.3       12 UNK        -0.2931 
      8 C8         31.1163   -3.9344   -0.3357 C.3       12 UNK         0.0378 
      9 C9         31.2698   -2.8498   -1.3942 C.ar      12 UNK        -0.0802 
     10 C10        31.6560   -3.1808   -2.6968 C.ar      12 UNK        -0.0944 
     11 C11        31.8027   -2.1850   -3.6667 C.ar      12 UNK        -0.0787 
     12 C12        31.5734   -0.8500   -3.3248 C.ar      12 UNK        -0.0862 
     13 C13        31.1611   -0.5073   -2.0325 C.ar      12 UNK        -0.0733 
     14 C14        31.0256   -1.5122   -1.0693 C.ar      12 UNK        -0.0832 
     15 C15        30.8402    0.9380   -1.6620 C.3       12 UNK         0.0240 
     16 S16        29.8727    1.8381   -2.9243 S.3       12 UNK        -0.2522 
     17 C17        28.4365    0.7437   -3.2085 C.3       12 UNK        -0.0967 
     18 CA         28.2141    0.4645   -4.7187 C.3       5 UNK         0.0660 
     19 N          27.5521   -0.8272   -4.9515 N.am      5 UNK        -0.4015 
     20 C          27.2361   -1.3501   -6.1485 C.2       4 UNK         0.4946 
     21 O          27.5074   -0.8146   -7.2227 O.2       4 UNK        -0.5353 
     22 CA         26.4154   -2.6503   -6.1496 C.3       4 UNK         0.0277 
     23 CB         27.3001   -3.8879   -5.9309 C.3       4 UNK        -0.1981 
     24 N          25.3693   -2.5959   -5.1285 N.am      4 UNK        -0.4209 
     25 C          24.1772   -2.0082   -5.3076 C.2       3 UNK         0.4942 
     26 O          23.7832   -1.5803   -6.3922 O.2       3 UNK        -0.5208 
     27 CA         23.2728   -1.8455   -4.0726 C.3       3 UNK         0.0250 
     28 CB         22.1967   -2.9423   -4.0361 C.3       3 UNK        -0.1990 
     29 N          24.0184   -1.8385   -2.8101 N.am      3 UNK        -0.4232 
     30 C          24.7945   -0.8203   -2.4069 C.2       2 UNK         0.4993 
     31 O          24.9374    0.2207   -3.0484 O.2       2 UNK        -0.5286 
     32 CA         25.5947   -1.0147   -1.1048 C.3       2 UNK         0.0209 
     33 CB         24.7657   -0.5652    0.1082 C.3       2 UNK        -0.1931 
     34 N          26.0607   -2.3907   -0.8983 N.am      2 UNK        -0.4546 
     35 C          26.8524   -3.0587   -1.7486 C.2       1 UNK         0.5154 
     36 O          27.2969   -2.5664   -2.7866 O.2       1 UNK        -0.5181 
     37 C          27.4751    1.6415   -5.3922 C.2       5 UNK         0.5014 
     38 O          28.1230    2.5379   -5.9342 O.2       5 UNK        -0.5248 
     39 N          26.1343    1.5845   -5.4023 N.am      6 UNK        -0.4434 
     40 CA         25.2303    2.5194   -6.0802 C.3       6 UNK         0.0363 
     41 CB         23.7783    2.0985   -5.8024 C.3       6 UNK        -0.1936 
     42 C          25.4612    2.6846   -7.5982 C.2       6 UNK         0.5081 
     43 O          25.0039    3.6823   -8.1565 O.2       6 UNK        -0.5248 
     44 N          26.1784    1.7497   -8.2432 N.am      7 UNK        -0.4718 
     45 CA         26.6403    1.8778   -9.6306 C.3       7 UNK         0.0273 
     46 CB         27.0705    0.4986  -10.1568 C.3       7 UNK        -0.1935 
     47 C          27.7870    2.8948   -9.8038 C.2       7 UNK         0.5018 
     48 O          28.0929    3.2529  -10.9419 O.2       7 UNK        -0.5186 
     49 N          28.4156    3.3232   -8.6967 N.am      8 UNK        -0.4240 
     50 CA         29.4913    4.3150   -8.5552 C.3       8 UNK         0.0235 
     51 CB         29.0630    5.6954   -9.0895 C.3       8 UNK        -0.2000 
     52 C          30.8502    3.8929   -9.1384 C.2       8 UNK         0.4941 
     53 O          31.8759    4.1329   -8.4999 O.2       8 UNK        -0.5273 
     54 N          30.8542    3.2573  -10.3155 N.am      9 UNK        -0.4262 
     55 CA         32.0326    2.8079  -11.0640 C.3       9 UNK         0.0264 
     56 CB         31.6240    2.5932  -12.5338 C.3       9 UNK        -0.1955 
     57 C          32.7193    1.5659  -10.4545 C.2       9 UNK         0.5031 
     58 O          32.9803    0.5983  -11.1720 O.2       9 UNK        -0.5390 
     59 N          32.9895    1.6085   -9.1413 N.am      10 UNK        -0.4204 
     60 CA         33.7091    0.6147   -8.3293 C.3       10 UNK         0.0237 
     61 CB         35.2226    0.7060   -8.6178 C.3       10 UNK        -0.1985 
     62 C          33.1695   -0.8265   -8.4593 C.2       10 UNK         0.4970 
     63 O          33.9568   -1.7745   -8.4755 O.2       10 UNK        -0.4914 
     64 N          31.8400   -0.9558   -8.5681 N.am      11 UNK        -0.4285 
     65 CA         31.1053   -2.2078   -8.8263 C.3       11 UNK         0.1007 
     66 C          31.3359   -2.8189  -10.2444 C.2       11 UNK         0.5703 
     67 N          31.9292   -2.1090  -11.1974 N.am      11 UNK        -0.7361 
     68 O          30.9350   -3.9511  -10.5048 O.2       11 UNK        -0.4986 
     69 C69        31.2619   -3.2625   -7.6907 C.3       12 UNK        -0.0947 
     70 S70        30.6430   -2.6576   -6.0900 S.3       12 UNK        -0.2240 
     71 C71        32.1581   -2.5518   -5.0974 C.3       12 UNK         0.0194 
     72 H72        23.9517   -7.0216   -3.5288 H         1 UNK         0.0906 
     73 H73        24.3270   -5.7377   -4.6815 H         1 UNK         0.0906 
     74 H74        25.5521   -6.9380   -4.2657 H         1 UNK         0.0906 
     75 H75        27.1285   -5.9366   -3.0271 H         1 UNK         0.3140 
     76 H76        26.6546   -4.7975   -0.4880 H         1 UNK         0.1085 
     77 H77        29.1651   -4.4966   -2.2170 H         1 UNK         0.0836 
     78 H78        28.7963   -5.9325   -1.3018 H         1 UNK         0.0836 
     79 H79        31.5120   -4.8870   -0.6918 H         1 UNK         0.0731 
     80 H80        31.7119   -3.6649    0.5376 H         1 UNK         0.0731 
     81 H81        31.8276   -4.2152   -2.9619 H         1 UNK         0.1312 
     82 H82        31.6768   -0.0824   -4.0794 H         1 UNK         0.1406 
     83 H83        30.7128   -1.2603   -0.0648 H         1 UNK         0.1631 
     84 H84        31.7759    1.4717   -1.4915 H         1 UNK         0.0717 
     85 H85        30.2866    0.9772   -0.7225 H         1 UNK         0.0717 
     86 H86        28.5994   -0.1939   -2.6767 H         1 UNK         0.0934 
     87 H87        27.5533    1.1886   -2.7462 H         1 UNK         0.0934 
     88 H88        29.1887    0.3761   -5.2037 H         1 UNK         0.0739 
     89 H89        27.3640   -1.3894   -4.1231 H         1 UNK         0.3093 
     90 H90        25.9489   -2.7495   -7.1324 H         1 UNK         0.0818 
     91 H91        27.8686   -3.8312   -5.0024 H         1 UNK         0.0819 
     92 H92        26.7066   -4.8015   -5.9071 H         1 UNK         0.0819 
     93 H93        28.0184   -3.9931   -6.7446 H         1 UNK         0.0819 
     94 H94        25.6385   -2.8725   -4.1936 H         1 UNK         0.3041 
     95 H95        22.7658   -0.8825   -4.1684 H         1 UNK         0.0784 
     96 H96        21.5846   -2.9157   -4.9386 H         1 UNK         0.0793 
     97 H97        22.6323   -3.9390   -3.9705 H         1 UNK         0.0793 
     98 H98        21.5258   -2.8126   -3.1868 H         1 UNK         0.0793 
     99 H99        23.9935   -2.6905   -2.2590 H         1 UNK         0.3024 
    100 H100       26.4779   -0.3766   -1.1680 H         1 UNK         0.1171 
    101 H101       25.3520   -0.6039    1.0265 H         1 UNK         0.0786 
    102 H102       24.4249    0.4643   -0.0127 H         1 UNK         0.0786 
    103 H103       23.8806   -1.1874    0.2469 H         1 UNK         0.0786 
    104 H104       25.7051   -2.8718   -0.0842 H         1 UNK         0.2977 
    105 H105       25.6914    0.8567   -4.8503 H         1 UNK         0.3127 
    106 H106       25.3927    3.4999   -5.6284 H         1 UNK         0.0770 
    107 H107       23.5577    1.1177   -6.2241 H         1 UNK         0.0814 
    108 H108       23.0744    2.8071   -6.2411 H         1 UNK         0.0814 
    109 H109       23.5717    2.0591   -4.7326 H         1 UNK         0.0814 
    110 H110       26.5252    0.9465   -7.7269 H         1 UNK         0.2983 
    111 H111       25.8028    2.2276  -10.2382 H         1 UNK         0.0947 
    112 H112       27.3057    0.5438  -11.2211 H         1 UNK         0.0806 
    113 H113       26.2805   -0.2417  -10.0304 H         1 UNK         0.0806 
    114 H114       27.9606    0.1308   -9.6452 H         1 UNK         0.0806 
    115 H115       28.1163    2.9234   -7.8097 H         1 UNK         0.3000 
    116 H116       29.6409    4.4179   -7.4789 H         1 UNK         0.0850 
    117 H117       29.8252    6.4467   -8.8787 H         1 UNK         0.0810 
    118 H118       28.1383    6.0314   -8.6201 H         1 UNK         0.0810 
    119 H119       28.9077    5.6874  -10.1687 H         1 UNK         0.0810 
    120 H120       29.9483    3.1161  -10.7568 H         1 UNK         0.3040 
    121 H121       32.7713    3.6118  -11.0425 H         1 UNK         0.0766 
    122 H122       32.4850    2.3218  -13.1463 H         1 UNK         0.0812 
    123 H123       30.8868    1.7953  -12.6331 H         1 UNK         0.0812 
    124 H124       31.1972    3.4993  -12.9641 H         1 UNK         0.0812 
    125 H125       32.7105    2.4623   -8.6603 H         1 UNK         0.3205 
    126 H126       33.5532    0.8995   -7.2877 H         1 UNK         0.0754 
    127 H127       35.7928    0.0645   -7.9446 H         1 UNK         0.0769 
    128 H128       35.5918    1.7225   -8.4816 H         1 UNK         0.0769 
    129 H129       35.4553    0.3989   -9.6383 H         1 UNK         0.0769 
    130 H130       31.2776   -0.1187   -8.5558 H         1 UNK         0.2981 
    131 H131       30.0548   -1.9140   -8.8391 H         1 UNK         0.0541 
    132 H132       32.2752   -1.1685  -11.0273 H         1 UNK         0.3459 
    133 H133       32.0528   -2.5240  -12.1066 H         1 UNK         0.3459 
    134 H134       30.6846   -4.1595   -7.9199 H         1 UNK         0.0612 
    135 H135       32.2969   -3.5920   -7.5950 H         1 UNK         0.0612 
    136 H136       32.6852   -3.5065   -5.1285 H         1 UNK         0.0624 
    137 H137       32.8279   -1.8053   -5.5263 H         1 UNK         0.0624 
@<TRIPOS>BOND
     1    1    2 1    
     2    1   72 1    
     3    1   73 1    
     4    1   74 1    
     5    2    3 2    
     6    2    4 am   BACKBONE|DICT|INTERRES
     7    4    5 1    
     8    4   75 1    
     9    5    6 1    
    10    5   35 1    
    11    5   76 1    
    12    6    7 1    
    13    6   77 1    
    14    6   78 1    
    15    7    8 1    
    16    8    9 1    
    17    8   79 1    
    18    8   80 1    
    19    9   10 ar   
    20    9   14 ar   
    21   10   11 ar   
    22   10   81 1    
    23   11   12 ar   
    24   11   71 1    
    25   12   13 ar   
    26   12   82 1    
    27   13   14 ar   
    28   13   15 1    
    29   14   83 1    
    30   15   16 1    
    31   15   84 1    
    32   15   85 1    
    33   16   17 1    
    34   17   18 1    
    35   17   86 1    
    36   17   87 1    
    37   18   19 1    
    38   18   37 1    
    39   18   88 1    
    40   19   20 am   BACKBONE|DICT|INTERRES
    41   19   89 1    
    42   20   21 2    
    43   20   22 1    
    44   22   23 1    
    45   22   24 1    
    46   22   90 1    
    47   23   91 1    
    48   23   92 1    
    49   23   93 1    
    50   24   25 am   BACKBONE|DICT|INTERRES
    51   24   94 1    
    52   25   26 2    
    53   25   27 1    
    54   27   28 1    
    55   27   29 1    
    56   27   95 1    
    57   28   96 1    
    58   28   97 1    
    59   28   98 1    
    60   29   30 am   BACKBONE|DICT|INTERRES
    61   29   99 1    
    62   30   31 2    
    63   30   32 1    
    64   32   33 1    
    65   32   34 1    
    66   32  100 1    
    67   33  101 1    
    68   33  102 1    
    69   33  103 1    
    70   34   35 am   BACKBONE|DICT|INTERRES
    71   34  104 1    
    72   35   36 2    
    73   37   38 2    
    74   37   39 am   BACKBONE|DICT|INTERRES
    75   39   40 1    
    76   39  105 1    
    77   40   41 1    
    78   40   42 1    
    79   40  106 1    
    80   41  107 1    
    81   41  108 1    
    82   41  109 1    
    83   42   43 2    
    84   42   44 am   BACKBONE|DICT|INTERRES
    85   44   45 1    
    86   44  110 1    
    87   45   46 1    
    88   45   47 1    
    89   45  111 1    
    90   46  112 1    
    91   46  113 1    
    92   46  114 1    
    93   47   48 2    
    94   47   49 am   BACKBONE|DICT|INTERRES
    95   49   50 1    
    96   49  115 1    
    97   50   51 1    
    98   50   52 1    
    99   50  116 1    
   100   51  117 1    
   101   51  118 1    
   102   51  119 1    
   103   52   53 2    
   104   52   54 am   BACKBONE|DICT|INTERRES
   105   54   55 1    
   106   54  120 1    
   107   55   56 1    
   108   55   57 1    
   109   55  121 1    
   110   56  122 1    
   111   56  123 1    
   112   56  124 1    
   113   57   58 2    
   114   57   59 am   BACKBONE|DICT|INTERRES
   115   59   60 1    
   116   59  125 1    
   117   60   61 1    
   118   60   62 1    
   119   60  126 1    
   120   61  127 1    
   121   61  128 1    
   122   61  129 1    
   123   62   63 2    
   124   62   64 am   BACKBONE|DICT|INTERRES
   125   64   65 1    
   126   64  130 1    
   127   65   66 1    
   128   65   69 1    
   129   65  131 1    
   130   66   67 am   BACKBONE|DICT|INTERRES
   131   66   68 2    
   132   67  132 1    
   133   67  133 1    
   134   69   70 1    
   135   69  134 1    
   136   69  135 1    
   137   70   71 1    
   138   71  136 1    
   139   71  137 1    
@<TRIPOS>SUBSTRUCTURE
     1 UNK         1 GROUP             0       ****    0 ROOT    
