@<TRIPOS>MOLECULE
3R137
137   139    1
SMALL
USER_CHARGES


@<TRIPOS>ATOM
      1 CA         23.1956   -5.6455   -0.4203 C.3       0 UNK        -0.2020 
      2 C          24.4850   -4.8421   -0.3462 C.2       0 UNK         0.4855 
      3 O          24.7138   -4.1366    0.6371 O.2       0 UNK        -0.5197 
      4 N          25.3280   -4.9277   -1.3839 N.am      1 UNK        -0.4892 
      5 CA         26.6134   -4.2275   -1.5042 C.3       1 UNK         0.0835 
      6 C6         27.5709   -5.0103   -2.4421 C.3       12 UNK        -0.0855 
      7 S7         29.3267   -4.5451   -2.2366 S.3       12 UNK        -0.2931 
      8 C8         29.7445   -3.9276   -3.9054 C.3       12 UNK         0.0378 
      9 C9         30.6010   -2.6683   -3.8906 C.ar      12 UNK        -0.0802 
     10 C10        31.6608   -2.5285   -4.7928 C.ar      12 UNK        -0.0944 
     11 C11        32.4073   -1.3463   -4.8333 C.ar      12 UNK        -0.0787 
     12 C12        32.0914   -0.3005   -3.9624 C.ar      12 UNK        -0.0862 
     13 C13        31.0225   -0.4203   -3.0725 C.ar      12 UNK        -0.0733 
     14 C14        30.2888   -1.6080   -3.0349 C.ar      12 UNK        -0.0832 
     15 C15        30.6409    0.7467   -2.1771 C.3       12 UNK         0.0240 
     16 S16        29.6430    1.9747   -3.0791 S.3       12 UNK        -0.2522 
     17 C17        28.1003    1.0539   -3.3978 C.3       12 UNK        -0.0967 
     18 CA         27.8320    0.8257   -4.9102 C.3       5 UNK         0.0660 
     19 N          27.0487   -0.3953   -5.1541 N.am      5 UNK        -0.4015 
     20 C          26.6553   -0.8446   -6.3574 C.2       4 UNK         0.4946 
     21 O          26.9809   -0.3303   -7.4253 O.2       4 UNK        -0.5353 
     22 CA         25.6700   -2.0237   -6.3842 C.3       4 UNK         0.0277 
     23 CB         26.3959   -3.3748   -6.3410 C.3       4 UNK        -0.1981 
     24 N          24.6904   -1.9432   -5.3012 N.am      4 UNK        -0.4209 
     25 C          23.6762   -1.0670   -5.2731 C.2       3 UNK         0.4942 
     26 O          23.4224   -0.2829   -6.1872 O.2       3 UNK        -0.5208 
     27 CA         22.8332   -1.0302   -3.9870 C.3       3 UNK         0.0250 
     28 CB         21.7742   -2.1441   -3.9970 C.3       3 UNK        -0.1990 
     29 N          23.6494   -1.1374   -2.7743 N.am      3 UNK        -0.4232 
     30 C          24.5624   -0.2318   -2.3954 C.2       2 UNK         0.4993 
     31 O          24.7813    0.8139   -3.0064 O.2       2 UNK        -0.5286 
     32 CA         25.4067   -0.5681   -1.1549 C.3       2 UNK         0.0209 
     33 CB         24.7044   -0.0768    0.1203 C.3       2 UNK        -0.1931 
     34 N          25.7284   -1.9930   -1.0152 N.am      2 UNK        -0.4546 
     35 C          26.3920   -2.7479   -1.9025 C.2       1 UNK         0.5154 
     36 O          26.7676   -2.3243   -2.9979 O.2       1 UNK        -0.5181 
     37 C          27.1674    2.0709   -5.5359 C.2       5 UNK         0.5014 
     38 O          27.8267    2.8271   -6.2509 O.2       5 UNK        -0.5248 
     39 N          25.8634    2.2381   -5.2684 N.am      6 UNK        -0.4434 
     40 CA         25.0266    3.3061   -5.8150 C.3       6 UNK         0.0363 
     41 CB         23.6664    3.3021   -5.0993 C.3       6 UNK        -0.1936 
     42 C          24.8364    3.2129   -7.3390 C.2       6 UNK         0.5081 
     43 O          24.7791    4.2520   -7.9973 O.2       6 UNK        -0.5248 
     44 N          24.7350    1.9865   -7.8713 N.am      7 UNK        -0.4718 
     45 CA         24.6005    1.7180   -9.3037 C.3       7 UNK         0.0273 
     46 CB         24.1294    0.2716   -9.5287 C.3       7 UNK        -0.1935 
     47 C          25.8954    2.0106  -10.0793 C.2       7 UNK         0.5018 
     48 O          25.8619    2.8058  -11.0199 O.2       7 UNK        -0.5186 
     49 N          27.0036    1.3754   -9.6758 N.am      8 UNK        -0.4240 
     50 CA         28.3220    1.5061  -10.2925 C.3       8 UNK         0.0235 
     51 CB         28.3361    0.9056  -11.7162 C.3       8 UNK        -0.2000 
     52 C          29.3600    0.8159   -9.4013 C.2       8 UNK         0.4941 
     53 O          29.5111   -0.4063   -9.4749 O.2       8 UNK        -0.5273 
     54 N          30.0886    1.6019   -8.5988 N.am      9 UNK        -0.4262 
     55 CA         31.1951    1.1544   -7.7445 C.3       9 UNK         0.0264 
     56 CB         31.4668    2.2354   -6.6816 C.3       9 UNK        -0.1955 
     57 C          32.4600    0.7987   -8.5586 C.2       9 UNK         0.5031 
     58 O          33.5230    1.3882   -8.3511 O.2       9 UNK        -0.5390 
     59 N          32.3301   -0.1654   -9.4767 N.am      10 UNK        -0.4204 
     60 CA         33.3598   -0.6221  -10.4136 C.3       10 UNK         0.0237 
     61 CB         32.6636   -1.2691  -11.6262 C.3       10 UNK        -0.1985 
     62 C          34.4056   -1.5512   -9.7611 C.2       10 UNK         0.4970 
     63 O          34.6071   -2.6747  -10.2261 O.2       10 UNK        -0.4914 
     64 N          35.0569   -1.0649   -8.6988 N.am      11 UNK        -0.4285 
     65 CA         36.1674   -1.7418   -8.0051 C.3       11 UNK         0.1007 
     66 C          37.5436   -1.5667   -8.7143 C.2       11 UNK         0.5703 
     67 N          37.6766   -0.7111   -9.7219 N.am      11 UNK        -0.7361 
     68 O          38.5096   -2.2336   -8.3509 O.2       11 UNK        -0.4986 
     69 C69        36.2441   -1.3234   -6.5099 C.3       12 UNK        -0.0947 
     70 S70        34.9928   -2.1374   -5.4597 S.3       12 UNK        -0.2240 
     71 C71        33.5123   -1.1691   -5.8593 C.3       12 UNK         0.0194 
     72 H72        23.1415   -6.3437    0.4145 H         1 UNK         0.0906 
     73 H73        22.3349   -4.9797   -0.3635 H         1 UNK         0.0906 
     74 H74        23.1223   -6.2169   -1.3453 H         1 UNK         0.0906 
     75 H75        25.0744   -5.5068   -2.1725 H         1 UNK         0.3140 
     76 H76        27.0764   -4.2140   -0.5144 H         1 UNK         0.1085 
     77 H77        27.2550   -4.9325   -3.4826 H         1 UNK         0.0836 
     78 H78        27.5149   -6.0747   -2.2074 H         1 UNK         0.0836 
     79 H79        28.8406   -3.6844   -4.4581 H         1 UNK         0.0731 
     80 H80        30.2386   -4.7288   -4.4571 H         1 UNK         0.0731 
     81 H81        31.8960   -3.3303   -5.4796 H         1 UNK         0.1312 
     82 H82        32.6552    0.6216   -3.9960 H         1 UNK         0.1406 
     83 H83        29.4548   -1.7037   -2.3538 H         1 UNK         0.1631 
     84 H84        31.5435    1.2312   -1.8018 H         1 UNK         0.0717 
     85 H85        30.0923    0.4015   -1.2992 H         1 UNK         0.0717 
     86 H86        28.1473    0.1000   -2.8766 H         1 UNK         0.0934 
     87 H87        27.2828    1.5932   -2.9166 H         1 UNK         0.0934 
     88 H88        28.7870    0.6689   -5.4168 H         1 UNK         0.0739 
     89 H89        26.7848   -0.9381   -4.3368 H         1 UNK         0.3093 
     90 H90        25.1313   -1.9740   -7.3326 H         1 UNK         0.0818 
     91 H91        27.1988   -3.4154   -7.0787 H         1 UNK         0.0819 
     92 H92        26.8333   -3.5610   -5.3641 H         1 UNK         0.0819 
     93 H93        25.7123   -4.1952   -6.5595 H         1 UNK         0.0819 
     94 H94        24.8648   -2.5122   -4.4852 H         1 UNK         0.3041 
     95 H95        22.3180   -0.0675   -3.9588 H         1 UNK         0.0784 
     96 H96        21.1453   -2.0747   -4.8859 H         1 UNK         0.0793 
     97 H97        22.2266   -3.1366   -3.9947 H         1 UNK         0.0793 
     98 H98        21.1158   -2.0730   -3.1310 H         1 UNK         0.0793 
     99 H99        23.5315   -1.9646   -2.2080 H         1 UNK         0.3024 
    100 H100       26.3503   -0.0289   -1.2483 H         1 UNK         0.1171 
    101 H101       25.3377   -0.2093    0.9978 H         1 UNK         0.0786 
    102 H102       24.4677    0.9862    0.0516 H         1 UNK         0.0786 
    103 H103       23.7693   -0.6094    0.2982 H         1 UNK         0.0786 
    104 H104       25.4011   -2.4593   -0.1735 H         1 UNK         0.2977 
    105 H105       25.4156    1.6006   -4.6126 H         1 UNK         0.3127 
    106 H106       25.5219    4.2558   -5.6021 H         1 UNK         0.0770 
    107 H107       23.1330    2.3633   -5.2538 H         1 UNK         0.0814 
    108 H108       23.0281    4.1061   -5.4681 H         1 UNK         0.0814 
    109 H109       23.7831    3.4461   -4.0250 H         1 UNK         0.0814 
    110 H110       24.7474    1.1846   -7.2526 H         1 UNK         0.2983 
    111 H111       23.8258    2.3812   -9.6955 H         1 UNK         0.0947 
    112 H112       24.8555   -0.4551   -9.1656 H         1 UNK         0.0806 
    113 H113       23.9759    0.0740  -10.5903 H         1 UNK         0.0806 
    114 H114       23.1831    0.0796   -9.0226 H         1 UNK         0.0806 
    115 H115       26.9578    0.7523   -8.8665 H         1 UNK         0.3000 
    116 H116       28.5699    2.5674  -10.3613 H         1 UNK         0.0850 
    117 H117       29.3451    0.9080  -12.1307 H         1 UNK         0.0810 
    118 H118       27.7094    1.4739  -12.4029 H         1 UNK         0.0810 
    119 H119       27.9845   -0.1270  -11.7203 H         1 UNK         0.0810 
    120 H120       29.8938    2.5932   -8.5885 H         1 UNK         0.3040 
    121 H121       30.8820    0.2478   -7.2216 H         1 UNK         0.0766 
    122 H122       30.5878    2.4135   -6.0624 H         1 UNK         0.0812 
    123 H123       31.7558    3.1841   -7.1351 H         1 UNK         0.0812 
    124 H124       32.2743    1.9372   -6.0132 H         1 UNK         0.0812 
    125 H125       31.4047   -0.5793   -9.5726 H         1 UNK         0.3205 
    126 H126       33.9018    0.2534  -10.7775 H         1 UNK         0.0754 
    127 H127       33.3904   -1.5779  -12.3789 H         1 UNK         0.0769 
    128 H128       31.9784   -0.5715  -12.1087 H         1 UNK         0.0769 
    129 H129       32.0927   -2.1531  -11.3389 H         1 UNK         0.0769 
    130 H130       34.8228   -0.1269   -8.3891 H         1 UNK         0.2981 
    131 H131       35.9751   -2.8161   -8.0321 H         1 UNK         0.0541 
    132 H132       36.8959   -0.1551  -10.0302 H         1 UNK         0.3459 
    133 H133       38.5733   -0.6165  -10.1723 H         1 UNK         0.3459 
    134 H134       37.2092   -1.5966   -6.0789 H         1 UNK         0.0612 
    135 H135       36.1707   -0.2398   -6.4021 H         1 UNK         0.0612 
    136 H136       33.7832   -0.1163   -5.9480 H         1 UNK         0.0624 
    137 H137       33.1377   -1.4857   -6.8322 H         1 UNK         0.0624 
@<TRIPOS>BOND
     1    1    2 1    
     2    1   72 1    
     3    1   73 1    
     4    1   74 1    
     5    2    3 2    
     6    2    4 am   BACKBONE|DICT|INTERRES
     7    4    5 1    
     8    4   75 1    
     9    5    6 1    
    10    5   35 1    
    11    5   76 1    
    12    6    7 1    
    13    6   77 1    
    14    6   78 1    
    15    7    8 1    
    16    8    9 1    
    17    8   79 1    
    18    8   80 1    
    19    9   10 ar   
    20    9   14 ar   
    21   10   11 ar   
    22   10   81 1    
    23   11   12 ar   
    24   11   71 1    
    25   12   13 ar   
    26   12   82 1    
    27   13   14 ar   
    28   13   15 1    
    29   14   83 1    
    30   15   16 1    
    31   15   84 1    
    32   15   85 1    
    33   16   17 1    
    34   17   18 1    
    35   17   86 1    
    36   17   87 1    
    37   18   19 1    
    38   18   37 1    
    39   18   88 1    
    40   19   20 am   BACKBONE|DICT|INTERRES
    41   19   89 1    
    42   20   21 2    
    43   20   22 1    
    44   22   23 1    
    45   22   24 1    
    46   22   90 1    
    47   23   91 1    
    48   23   92 1    
    49   23   93 1    
    50   24   25 am   BACKBONE|DICT|INTERRES
    51   24   94 1    
    52   25   26 2    
    53   25   27 1    
    54   27   28 1    
    55   27   29 1    
    56   27   95 1    
    57   28   96 1    
    58   28   97 1    
    59   28   98 1    
    60   29   30 am   BACKBONE|DICT|INTERRES
    61   29   99 1    
    62   30   31 2    
    63   30   32 1    
    64   32   33 1    
    65   32   34 1    
    66   32  100 1    
    67   33  101 1    
    68   33  102 1    
    69   33  103 1    
    70   34   35 am   BACKBONE|DICT|INTERRES
    71   34  104 1    
    72   35   36 2    
    73   37   38 2    
    74   37   39 am   BACKBONE|DICT|INTERRES
    75   39   40 1    
    76   39  105 1    
    77   40   41 1    
    78   40   42 1    
    79   40  106 1    
    80   41  107 1    
    81   41  108 1    
    82   41  109 1    
    83   42   43 2    
    84   42   44 am   BACKBONE|DICT|INTERRES
    85   44   45 1    
    86   44  110 1    
    87   45   46 1    
    88   45   47 1    
    89   45  111 1    
    90   46  112 1    
    91   46  113 1    
    92   46  114 1    
    93   47   48 2    
    94   47   49 am   BACKBONE|DICT|INTERRES
    95   49   50 1    
    96   49  115 1    
    97   50   51 1    
    98   50   52 1    
    99   50  116 1    
   100   51  117 1    
   101   51  118 1    
   102   51  119 1    
   103   52   53 2    
   104   52   54 am   BACKBONE|DICT|INTERRES
   105   54   55 1    
   106   54  120 1    
   107   55   56 1    
   108   55   57 1    
   109   55  121 1    
   110   56  122 1    
   111   56  123 1    
   112   56  124 1    
   113   57   58 2    
   114   57   59 am   BACKBONE|DICT|INTERRES
   115   59   60 1    
   116   59  125 1    
   117   60   61 1    
   118   60   62 1    
   119   60  126 1    
   120   61  127 1    
   121   61  128 1    
   122   61  129 1    
   123   62   63 2    
   124   62   64 am   BACKBONE|DICT|INTERRES
   125   64   65 1    
   126   64  130 1    
   127   65   66 1    
   128   65   69 1    
   129   65  131 1    
   130   66   67 am   BACKBONE|DICT|INTERRES
   131   66   68 2    
   132   67  132 1    
   133   67  133 1    
   134   69   70 1    
   135   69  134 1    
   136   69  135 1    
   137   70   71 1    
   138   71  136 1    
   139   71  137 1    
@<TRIPOS>SUBSTRUCTURE
     1 UNK         1 GROUP             0       ****    0 ROOT    
