@<TRIPOS>MOLECULE
3R137
137   139    1
SMALL
USER_CHARGES


@<TRIPOS>ATOM
      1 CA         28.9691   -6.3253   -2.8386 C.3       0 UNK        -0.2020 
      2 C          28.4088   -5.5552   -1.6528 C.2       0 UNK         0.4855 
      3 O          27.6717   -6.1214   -0.8457 O.2       0 UNK        -0.5197 
      4 N          28.7608   -4.2682   -1.5403 N.am      1 UNK        -0.4892 
      5 CA         28.3584   -3.3648   -0.4519 C.3       1 UNK         0.0835 
      6 C6         29.1867   -2.0533   -0.4378 C.3       12 UNK        -0.0855 
      7 S7         30.9967   -2.3269   -0.4277 S.3       12 UNK        -0.2931 
      8 C8         31.5455   -1.3871   -1.8921 C.3       12 UNK         0.0378 
      9 C9         31.5203   -2.2267   -3.1638 C.ar      12 UNK        -0.0802 
     10 C10        32.7116   -2.6828   -3.7373 C.ar      12 UNK        -0.0944 
     11 C11        32.6864   -3.4572   -4.9011 C.ar      12 UNK        -0.0787 
     12 C12        31.4573   -3.7895   -5.4781 C.ar      12 UNK        -0.0862 
     13 C13        30.2574   -3.3335   -4.9294 C.ar      12 UNK        -0.0733 
     14 C14        30.3046   -2.5376   -3.7763 C.ar      12 UNK        -0.0832 
     15 C15        28.9520   -3.7386   -5.6215 C.3       12 UNK         0.0240 
     16 S16        27.4246   -3.0264   -4.9220 S.3       12 UNK        -0.2522 
     17 C17        27.6758   -1.2635   -5.3201 C.3       12 UNK        -0.0967 
     18 CA         26.7407   -0.7749   -6.4431 C.3       5 UNK         0.0660 
     19 N          25.3246   -0.8999   -6.0833 N.am      5 UNK        -0.4015 
     20 C          24.2976   -0.7692   -6.9376 C.2       4 UNK         0.4946 
     21 O          24.4411   -0.5028   -8.1319 O.2       4 UNK        -0.5353 
     22 CA         22.8721   -0.9250   -6.3752 C.3       4 UNK         0.0277 
     23 CB         22.3104   -2.3113   -6.7296 C.3       4 UNK        -0.1981 
     24 N          22.7744   -0.7256   -4.9265 N.am      4 UNK        -0.4209 
     25 C          23.0218    0.4237   -4.2802 C.2       3 UNK         0.4942 
     26 O          23.3275    1.4742   -4.8458 O.2       3 UNK        -0.5208 
     27 CA         22.9681    0.3742   -2.7405 C.3       3 UNK         0.0250 
     28 CB         21.5669    0.7574   -2.2382 C.3       3 UNK        -0.1990 
     29 N          23.3508   -0.9311   -2.1814 N.am      3 UNK        -0.4232 
     30 C          24.5637   -1.4843   -2.3233 C.2       2 UNK         0.4993 
     31 O          25.4875   -0.9386   -2.9286 O.2       2 UNK        -0.5286 
     32 CA         24.7462   -2.9049   -1.7702 C.3       2 UNK         0.0209 
     33 CB         24.1562   -3.9325   -2.7520 C.3       2 UNK        -0.1931 
     34 N          26.1662   -3.2077   -1.5839 N.am      2 UNK        -0.4546 
     35 C          26.8457   -3.0380   -0.4420 C.2       1 UNK         0.5154 
     36 O          26.3261   -2.6386    0.6018 O.2       1 UNK        -0.5181 
     37 C          27.1480    0.6441   -6.8856 C.2       5 UNK         0.5014 
     38 O          28.2330    0.7936   -7.4507 O.2       5 UNK        -0.5248 
     39 N          26.2859    1.6510   -6.6758 N.am      6 UNK        -0.4434 
     40 CA         26.4364    3.0070   -7.2100 C.3       6 UNK         0.0363 
     41 CB         25.2713    3.8791   -6.7184 C.3       6 UNK        -0.1936 
     42 C          26.5307    3.0475   -8.7477 C.2       6 UNK         0.5081 
     43 O          27.2379    3.9012   -9.2810 O.2       6 UNK        -0.5248 
     44 N          25.8850    2.0894   -9.4321 N.am      7 UNK        -0.4718 
     45 CA         25.9835    1.8919  -10.8832 C.3       7 UNK         0.0273 
     46 CB         24.9071    0.8896  -11.3286 C.3       7 UNK        -0.1935 
     47 C          27.3775    1.4259  -11.3496 C.2       7 UNK         0.5018 
     48 O          27.7396    1.6741  -12.4998 O.2       7 UNK        -0.5186 
     49 N          28.1347    0.7814  -10.4513 N.am      8 UNK        -0.4240 
     50 CA         29.5250    0.3628  -10.6483 C.3       8 UNK         0.0235 
     51 CB         29.6819   -1.0715  -10.1094 C.3       8 UNK        -0.2000 
     52 C          30.5146    1.3137   -9.9476 C.2       8 UNK         0.4941 
     53 O          31.7087    1.0106   -9.9104 O.2       8 UNK        -0.5273 
     54 N          30.0081    2.4110   -9.3600 N.am      9 UNK        -0.4262 
     55 CA         30.7152    3.3945   -8.5315 C.3       9 UNK         0.0264 
     56 CB         31.6632    4.2455   -9.4029 C.3       9 UNK        -0.1955 
     57 C          31.4230    2.7789   -7.3045 C.2       9 UNK         0.5031 
     58 O          32.4520    3.3063   -6.8785 O.2       9 UNK        -0.5390 
     59 N          30.8669    1.6771   -6.7691 N.am      10 UNK        -0.4204 
     60 CA         31.4247    0.8338   -5.7022 C.3       10 UNK         0.0237 
     61 CB         31.3886    1.5772   -4.3498 C.3       10 UNK        -0.1985 
     62 C          32.8220    0.2870   -6.0624 C.2       10 UNK         0.4970 
     63 O          33.7729    0.4764   -5.3012 O.2       10 UNK        -0.4914 
     64 N          32.9118   -0.3456   -7.2420 N.am      11 UNK        -0.4285 
     65 CA         34.1574   -0.7546   -7.9118 C.3       11 UNK         0.1007 
     66 C          35.0161    0.4758   -8.3254 C.2       11 UNK         0.5703 
     67 N          34.4421    1.4076   -9.0757 N.am      11 UNK        -0.7361 
     68 O          36.1918    0.5922   -7.9850 O.2       11 UNK        -0.4986 
     69 C69        34.9560   -1.8577   -7.1534 C.3       12 UNK        -0.0947 
     70 S70        34.1628   -3.4947   -7.2649 S.3       12 UNK        -0.2240 
     71 C71        33.9780   -3.9772   -5.5165 C.3       12 UNK         0.0194 
     72 H72        28.1911   -6.4818   -3.5852 H         1 UNK         0.0906 
     73 H73        29.7976   -5.7972   -3.3103 H         1 UNK         0.0906 
     74 H74        29.3348   -7.2999   -2.5165 H         1 UNK         0.0906 
     75 H75        29.4167   -3.8805   -2.2038 H         1 UNK         0.3140 
     76 H76        28.5608   -3.8911    0.4837 H         1 UNK         0.1085 
     77 H77        28.9069   -1.4128   -1.2751 H         1 UNK         0.0836 
     78 H78        28.9469   -1.4761    0.4576 H         1 UNK         0.0836 
     79 H79        30.9240   -0.4997   -2.0138 H         1 UNK         0.0731 
     80 H80        32.5565   -1.0210   -1.7065 H         1 UNK         0.0731 
     81 H81        33.6586   -2.4367   -3.2766 H         1 UNK         0.1312 
     82 H82        31.4382   -4.4050   -6.3675 H         1 UNK         0.1406 
     83 H83        29.3970   -2.1543   -3.3389 H         1 UNK         0.1631 
     84 H84        28.8631   -4.8250   -5.5883 H         1 UNK         0.0717 
     85 H85        29.0066   -3.4673   -6.6771 H         1 UNK         0.0717 
     86 H86        27.5402   -0.6714   -4.4140 H         1 UNK         0.0934 
     87 H87        28.7150   -1.1150   -5.6140 H         1 UNK         0.0934 
     88 H88        26.9051   -1.4153   -7.3126 H         1 UNK         0.0739 
     89 H89        25.1397   -1.0873   -5.1050 H         1 UNK         0.3093 
     90 H90        22.2508   -0.1675   -6.8579 H         1 UNK         0.0818 
     91 H91        21.2699   -2.4105   -6.4196 H         1 UNK         0.0819 
     92 H92        22.3418   -2.4811   -7.8070 H         1 UNK         0.0819 
     93 H93        22.8814   -3.1120   -6.2574 H         1 UNK         0.0819 
     94 H94        22.5229   -1.5327   -4.3751 H         1 UNK         0.3041 
     95 H95        23.6791    1.1151   -2.3683 H         1 UNK         0.0784 
     96 H96        21.2692    1.7345   -2.6217 H         1 UNK         0.0793 
     97 H97        20.8110    0.0384   -2.5568 H         1 UNK         0.0793 
     98 H98        21.5375    0.8170   -1.1500 H         1 UNK         0.0793 
     99 H99        22.6353   -1.4364   -1.6777 H         1 UNK         0.3024 
    100 H100       24.2213   -2.9822   -0.8151 H         1 UNK         0.1171 
    101 H101       24.2981   -4.9508   -2.3890 H         1 UNK         0.0786 
    102 H102       23.0834   -3.7855   -2.8826 H         1 UNK         0.0786 
    103 H103       24.6183   -3.8636   -3.7380 H         1 UNK         0.0786 
    104 H104       26.6815   -3.4735   -2.4116 H         1 UNK         0.2977 
    105 H105       25.4224    1.4517   -6.1873 H         1 UNK         0.3127 
    106 H106       27.3673    3.4169   -6.8125 H         1 UNK         0.0770 
    107 H107       24.3086    3.4977   -7.0619 H         1 UNK         0.0814 
    108 H108       25.3676    4.9025   -7.0837 H         1 UNK         0.0814 
    109 H109       25.2420    3.9254   -5.6295 H         1 UNK         0.0814 
    110 H110       25.3389    1.4058   -8.9192 H         1 UNK         0.2983 
    111 H111       25.7826    2.8500  -11.3677 H         1 UNK         0.0947 
    112 H112       24.9289    0.7467  -12.4099 H         1 UNK         0.0806 
    113 H113       23.9075    1.2383  -11.0686 H         1 UNK         0.0806 
    114 H114       25.0509   -0.0883  -10.8669 H         1 UNK         0.0806 
    115 H115       27.7705    0.6562   -9.5144 H         1 UNK         0.3000 
    116 H116       29.7745    0.3616  -11.7113 H         1 UNK         0.0850 
    117 H117       28.9942   -1.7571  -10.6046 H         1 UNK         0.0810 
    118 H118       29.4924   -1.1244   -9.0365 H         1 UNK         0.0810 
    119 H119       30.6908   -1.4490  -10.2819 H         1 UNK         0.0810 
    120 H120       29.0134    2.5748   -9.4529 H         1 UNK         0.3040 
    121 H121       29.9482    4.0592   -8.1315 H         1 UNK         0.0766 
    122 H122       31.1346    4.6876  -10.2474 H         1 UNK         0.0812 
    123 H123       32.4897    3.6537   -9.7969 H         1 UNK         0.0812 
    124 H124       32.0952    5.0659   -8.8286 H         1 UNK         0.0812 
    125 H125       29.9864    1.3532   -7.1676 H         1 UNK         0.3205 
    126 H126       30.7767   -0.0382   -5.6150 H         1 UNK         0.0754 
    127 H127       31.9669    2.5008   -4.3766 H         1 UNK         0.0769 
    128 H128       31.8106    0.9640   -3.5553 H         1 UNK         0.0769 
    129 H129       30.3672    1.8277   -4.0636 H         1 UNK         0.0769 
    130 H130       32.0852   -0.3961   -7.8187 H         1 UNK         0.2981 
    131 H131       33.8473   -1.1907   -8.8625 H         1 UNK         0.0541 
    132 H132       33.4727    1.3073   -9.3686 H         1 UNK         0.3459 
    133 H133       34.9735    2.2163   -9.3532 H         1 UNK         0.3459 
    134 H134       35.1231   -1.5835   -6.1117 H         1 UNK         0.0612 
    135 H135       35.9485   -1.9796   -7.5902 H         1 UNK         0.0612 
    136 H136       34.8506   -3.6493   -4.9496 H         1 UNK         0.0624 
    137 H137       33.9702   -5.0664   -5.4598 H         1 UNK         0.0624 
@<TRIPOS>BOND
     1    1    2 1    
     2    1   72 1    
     3    1   73 1    
     4    1   74 1    
     5    2    3 2    
     6    2    4 am   BACKBONE|DICT|INTERRES
     7    4    5 1    
     8    4   75 1    
     9    5    6 1    
    10    5   35 1    
    11    5   76 1    
    12    6    7 1    
    13    6   77 1    
    14    6   78 1    
    15    7    8 1    
    16    8    9 1    
    17    8   79 1    
    18    8   80 1    
    19    9   10 ar   
    20    9   14 ar   
    21   10   11 ar   
    22   10   81 1    
    23   11   12 ar   
    24   11   71 1    
    25   12   13 ar   
    26   12   82 1    
    27   13   14 ar   
    28   13   15 1    
    29   14   83 1    
    30   15   16 1    
    31   15   84 1    
    32   15   85 1    
    33   16   17 1    
    34   17   18 1    
    35   17   86 1    
    36   17   87 1    
    37   18   19 1    
    38   18   37 1    
    39   18   88 1    
    40   19   20 am   BACKBONE|DICT|INTERRES
    41   19   89 1    
    42   20   21 2    
    43   20   22 1    
    44   22   23 1    
    45   22   24 1    
    46   22   90 1    
    47   23   91 1    
    48   23   92 1    
    49   23   93 1    
    50   24   25 am   BACKBONE|DICT|INTERRES
    51   24   94 1    
    52   25   26 2    
    53   25   27 1    
    54   27   28 1    
    55   27   29 1    
    56   27   95 1    
    57   28   96 1    
    58   28   97 1    
    59   28   98 1    
    60   29   30 am   BACKBONE|DICT|INTERRES
    61   29   99 1    
    62   30   31 2    
    63   30   32 1    
    64   32   33 1    
    65   32   34 1    
    66   32  100 1    
    67   33  101 1    
    68   33  102 1    
    69   33  103 1    
    70   34   35 am   BACKBONE|DICT|INTERRES
    71   34  104 1    
    72   35   36 2    
    73   37   38 2    
    74   37   39 am   BACKBONE|DICT|INTERRES
    75   39   40 1    
    76   39  105 1    
    77   40   41 1    
    78   40   42 1    
    79   40  106 1    
    80   41  107 1    
    81   41  108 1    
    82   41  109 1    
    83   42   43 2    
    84   42   44 am   BACKBONE|DICT|INTERRES
    85   44   45 1    
    86   44  110 1    
    87   45   46 1    
    88   45   47 1    
    89   45  111 1    
    90   46  112 1    
    91   46  113 1    
    92   46  114 1    
    93   47   48 2    
    94   47   49 am   BACKBONE|DICT|INTERRES
    95   49   50 1    
    96   49  115 1    
    97   50   51 1    
    98   50   52 1    
    99   50  116 1    
   100   51  117 1    
   101   51  118 1    
   102   51  119 1    
   103   52   53 2    
   104   52   54 am   BACKBONE|DICT|INTERRES
   105   54   55 1    
   106   54  120 1    
   107   55   56 1    
   108   55   57 1    
   109   55  121 1    
   110   56  122 1    
   111   56  123 1    
   112   56  124 1    
   113   57   58 2    
   114   57   59 am   BACKBONE|DICT|INTERRES
   115   59   60 1    
   116   59  125 1    
   117   60   61 1    
   118   60   62 1    
   119   60  126 1    
   120   61  127 1    
   121   61  128 1    
   122   61  129 1    
   123   62   63 2    
   124   62   64 am   BACKBONE|DICT|INTERRES
   125   64   65 1    
   126   64  130 1    
   127   65   66 1    
   128   65   69 1    
   129   65  131 1    
   130   66   67 am   BACKBONE|DICT|INTERRES
   131   66   68 2    
   132   67  132 1    
   133   67  133 1    
   134   69   70 1    
   135   69  134 1    
   136   69  135 1    
   137   70   71 1    
   138   71  136 1    
   139   71  137 1    
@<TRIPOS>SUBSTRUCTURE
     1 UNK         1 GROUP             0       ****    0 ROOT    
