@<TRIPOS>MOLECULE
3R137
137   139    1
SMALL
USER_CHARGES


@<TRIPOS>ATOM
      1 CA         28.2979    0.2694   -0.7921 C.3       0 UNK        -0.2020 
      2 C          27.9348   -1.0612   -1.4312 C.2       0 UNK         0.4855 
      3 O          27.4584   -1.0845   -2.5694 O.2       0 UNK        -0.5197 
      4 N          28.1265   -2.1656   -0.6967 N.am      1 UNK        -0.4892 
      5 CA         27.8855   -3.5528   -1.1197 C.3       1 UNK         0.0835 
      6 C6         28.6276   -4.5825   -0.2189 C.3       12 UNK        -0.0855 
      7 S7         30.3741   -4.1882    0.1414 S.3       12 UNK        -0.2931 
      8 C8         31.2318   -4.7699   -1.3586 C.3       12 UNK         0.0378 
      9 C9         31.0906   -3.7949   -2.5207 C.ar      12 UNK        -0.0802 
     10 C10        31.4466   -2.4519   -2.3593 C.ar      12 UNK        -0.0944 
     11 C11        31.3186   -1.5466   -3.4147 C.ar      12 UNK        -0.0787 
     12 C12        30.8378   -1.9966   -4.6480 C.ar      12 UNK        -0.0862 
     13 C13        30.4961   -3.3410   -4.8311 C.ar      12 UNK        -0.0733 
     14 C14        30.6252   -4.2356   -3.7636 C.ar      12 UNK        -0.0832 
     15 C15        30.0209   -3.8307   -6.1934 C.3       12 UNK         0.0240 
     16 S16        28.3366   -4.5299   -6.1702 S.3       12 UNK        -0.2522 
     17 C17        27.3230   -3.1565   -5.5322 C.3       12 UNK        -0.0967 
     18 CA         26.8853   -2.1519   -6.6334 C.3       5 UNK         0.0660 
     19 N          25.5288   -1.6430   -6.4071 N.am      5 UNK        -0.4015 
     20 C          24.8495   -0.8318   -7.2339 C.2       4 UNK         0.4946 
     21 O          25.2573   -0.4735   -8.3365 O.2       4 UNK        -0.5353 
     22 CA         23.5063   -0.2835   -6.7211 C.3       4 UNK         0.0277 
     23 CB         22.3545   -1.2210   -7.1147 C.3       4 UNK        -0.1981 
     24 N          23.4986   -0.0813   -5.2713 N.am      4 UNK        -0.4209 
     25 C          24.3043    0.7511   -4.5996 C.2       3 UNK         0.4942 
     26 O          25.0829    1.5337   -5.1444 O.2       3 UNK        -0.5208 
     27 CA         24.3055    0.6232   -3.0670 C.3       3 UNK         0.0250 
     28 CB         23.0598    1.2760   -2.4372 C.3       3 UNK        -0.1990 
     29 N          24.5074   -0.7615   -2.6064 N.am      3 UNK        -0.4232 
     30 C          23.6875   -1.8215   -2.7243 C.2       2 UNK         0.4993 
     31 O          22.5592   -1.7525   -3.2133 O.2       2 UNK        -0.5286 
     32 CA         24.2288   -3.1968   -2.2937 C.3       2 UNK         0.0209 
     33 CB         23.8341   -4.3108   -3.2840 C.3       2 UNK        -0.1931 
     34 N          25.6838   -3.1778   -2.1275 N.am      2 UNK        -0.4546 
     35 C          26.3711   -3.8608   -1.2084 C.2       1 UNK         0.5154 
     36 O          25.8483   -4.6643   -0.4333 O.2       1 UNK        -0.5181 
     37 C          27.8933   -0.9949   -6.7711 C.2       5 UNK         0.5014 
     38 O          28.5990   -0.9154   -7.7776 O.2       5 UNK        -0.5248 
     39 N          27.9081   -0.0981   -5.7725 N.am      6 UNK        -0.4434 
     40 CA         28.7316    1.1111   -5.7494 C.3       6 UNK         0.0363 
     41 CB         28.5695    1.8234   -4.3982 C.3       6 UNK        -0.1936 
     42 C          28.4238    2.0690   -6.9082 C.2       6 UNK         0.5081 
     43 O          29.3577    2.6096   -7.4963 O.2       6 UNK        -0.5248 
     44 N          27.1359    2.2383   -7.2361 N.am      7 UNK        -0.4718 
     45 CA         26.6798    3.0543   -8.3628 C.3       7 UNK         0.0273 
     46 CB         25.1523    3.2127   -8.3032 C.3       7 UNK        -0.1935 
     47 C          27.1209    2.4985   -9.7290 C.2       7 UNK         0.5018 
     48 O          27.5940    3.2688  -10.5653 O.2       7 UNK        -0.5186 
     49 N          26.9574    1.1840   -9.9338 N.am      8 UNK        -0.4240 
     50 CA         27.2752    0.5013  -11.1886 C.3       8 UNK         0.0235 
     51 CB         26.5572   -0.8577  -11.2376 C.3       8 UNK        -0.2000 
     52 C          28.7826    0.3187  -11.4155 C.2       8 UNK         0.4941 
     53 O          29.2668    0.6246  -12.5060 O.2       8 UNK        -0.5273 
     54 N          29.4931   -0.2001  -10.4048 N.am      9 UNK        -0.4262 
     55 CA         30.9029   -0.5878  -10.5183 C.3       9 UNK         0.0264 
     56 CB         31.1588   -1.8022   -9.6079 C.3       9 UNK        -0.1955 
     57 C          31.8854    0.5414  -10.1712 C.2       9 UNK         0.5031 
     58 O          33.0922    0.3311  -10.3060 O.2       9 UNK        -0.5390 
     59 N          31.3853    1.6752   -9.6521 N.am      10 UNK        -0.4204 
     60 CA         32.1525    2.7955   -9.0781 C.3       10 UNK         0.0237 
     61 CB         32.9809    3.5118  -10.1664 C.3       10 UNK        -0.1985 
     62 C          33.0094    2.3825   -7.8591 C.2       10 UNK         0.4970 
     63 O          33.9740    3.0734   -7.5273 O.2       10 UNK        -0.4914 
     64 N          32.6561    1.2468   -7.2388 N.am      11 UNK        -0.4285 
     65 CA         33.4384    0.5203   -6.2295 C.3       11 UNK         0.1007 
     66 C          34.8098   -0.0245   -6.7440 C.2       11 UNK         0.5703 
     67 N          35.0072   -0.1897   -8.0484 N.am      11 UNK        -0.7361 
     68 O          35.7035   -0.3288   -5.9580 O.2       11 UNK        -0.4986 
     69 C69        33.5136    1.2911   -4.8803 C.3       12 UNK        -0.0947 
     70 S70        33.4809    0.1819   -3.4316 S.3       12 UNK        -0.2240 
     71 C71        31.6947   -0.0871   -3.2054 C.3       12 UNK         0.0194 
     72 H72        28.4379    0.1771    0.2847 H         1 UNK         0.0906 
     73 H73        29.2205    0.6542   -1.2230 H         1 UNK         0.0906 
     74 H74        27.5085    0.9996   -0.9683 H         1 UNK         0.0906 
     75 H75        28.5162   -2.0748    0.2310 H         1 UNK         0.3140 
     76 H76        28.2823   -3.6589   -2.1311 H         1 UNK         0.1085 
     77 H77        28.1332   -4.6612    0.7515 H         1 UNK         0.0836 
     78 H78        28.5739   -5.5793   -0.6607 H         1 UNK         0.0836 
     79 H79        32.2925   -4.8839   -1.1314 H         1 UNK         0.0731 
     80 H80        30.8661   -5.7628   -1.6252 H         1 UNK         0.0731 
     81 H81        31.8187   -2.1082   -1.4037 H         1 UNK         0.1312 
     82 H82        30.7385   -1.3035   -5.4702 H         1 UNK         0.1406 
     83 H83        30.3624   -5.2752   -3.9063 H         1 UNK         0.1631 
     84 H84        30.7093   -4.5990   -6.5478 H         1 UNK         0.0717 
     85 H85        30.0616   -3.0313   -6.9324 H         1 UNK         0.0717 
     86 H86        26.4461   -3.6333   -5.0939 H         1 UNK         0.0934 
     87 H87        27.8285   -2.6738   -4.6940 H         1 UNK         0.0934 
     88 H88        26.8536   -2.6711   -7.5940 H         1 UNK         0.0739 
     89 H89        25.0961   -1.8796   -5.5290 H         1 UNK         0.3093 
     90 H90        23.3388    0.6860   -7.1934 H         1 UNK         0.0818 
     91 H91        21.3890   -0.8038   -6.8279 H         1 UNK         0.0819 
     92 H92        22.3308   -1.3775   -8.1942 H         1 UNK         0.0819 
     93 H93        22.4493   -2.2005   -6.6438 H         1 UNK         0.0819 
     94 H94        22.9083   -0.6966   -4.7146 H         1 UNK         0.3041 
     95 H95        25.1758    1.1780   -2.7116 H         1 UNK         0.0784 
     96 H96        22.9964    2.3301   -2.7105 H         1 UNK         0.0793 
     97 H97        22.1333    0.8034   -2.7640 H         1 UNK         0.0793 
     98 H98        23.0951    1.2253   -1.3490 H         1 UNK         0.0793 
     99 H99        25.4314   -0.9295   -2.2267 H         1 UNK         0.3024 
    100 H100       23.7612   -3.4110   -1.3297 H         1 UNK         0.1171 
    101 H101       22.7498   -4.4010   -3.3624 H         1 UNK         0.0786 
    102 H102       24.2115   -5.2812   -2.9611 H         1 UNK         0.0786 
    103 H103       24.2176   -4.1184   -4.2857 H         1 UNK         0.0786 
    104 H104       26.2084   -2.4938   -2.6655 H         1 UNK         0.2977 
    105 H105       27.3039   -0.2403   -4.9751 H         1 UNK         0.3127 
    106 H106       29.7731    0.8044   -5.8532 H         1 UNK         0.0770 
    107 H107       27.5487    2.1738   -4.2429 H         1 UNK         0.0814 
    108 H108       29.2261    2.6921   -4.3348 H         1 UNK         0.0814 
    109 H109       28.8228    1.1632   -3.5709 H         1 UNK         0.0814 
    110 H110       26.4246    1.7971   -6.6611 H         1 UNK         0.2983 
    111 H111       27.1260    4.0452   -8.2519 H         1 UNK         0.0947 
    112 H112       24.6424    2.2589   -8.4362 H         1 UNK         0.0806 
    113 H113       24.8325    3.6338   -7.3497 H         1 UNK         0.0806 
    114 H114       24.8000    3.8817   -9.0894 H         1 UNK         0.0806 
    115 H115       26.5155    0.6216   -9.2088 H         1 UNK         0.3000 
    116 H116       26.8899    1.1094  -12.0102 H         1 UNK         0.0850 
    117 H117       26.7720   -1.3820  -12.1698 H         1 UNK         0.0810 
    118 H118       25.4757   -0.7351  -11.1761 H         1 UNK         0.0810 
    119 H119       26.8649   -1.5074  -10.4169 H         1 UNK         0.0810 
    120 H120       29.0303   -0.4200   -9.5231 H         1 UNK         0.3040 
    121 H121       31.1117   -0.8933  -11.5460 H         1 UNK         0.0766 
    122 H122       32.1629   -2.2007   -9.7600 H         1 UNK         0.0812 
    123 H123       30.4563   -2.6103   -9.8123 H         1 UNK         0.0812 
    124 H124       31.0722   -1.5406   -8.5533 H         1 UNK         0.0812 
    125 H125       30.3812    1.7415   -9.5408 H         1 UNK         0.3205 
    126 H126       31.4232    3.5151   -8.7060 H         1 UNK         0.0754 
    127 H127       33.4228    4.4309   -9.7799 H         1 UNK         0.0769 
    128 H128       32.3606    3.7867  -11.0194 H         1 UNK         0.0769 
    129 H129       33.7982    2.8894  -10.5320 H         1 UNK         0.0769 
    130 H130       31.8415    0.7673   -7.5888 H         1 UNK         0.2981 
    131 H131       32.8532   -0.3824   -6.0591 H         1 UNK         0.0541 
    132 H132       34.2939    0.0486   -8.7296 H         1 UNK         0.3459 
    133 H133       35.8935   -0.5497   -8.3637 H         1 UNK         0.3459 
    134 H134       32.6816    1.9905   -4.7852 H         1 UNK         0.0612 
    135 H135       34.4129    1.9077   -4.8346 H         1 UNK         0.0612 
    136 H136       31.1257    0.5483   -3.8819 H         1 UNK         0.0624 
    137 H137       31.4217    0.2235   -2.1964 H         1 UNK         0.0624 
@<TRIPOS>BOND
     1    1    2 1    
     2    1   72 1    
     3    1   73 1    
     4    1   74 1    
     5    2    3 2    
     6    2    4 am   BACKBONE|DICT|INTERRES
     7    4    5 1    
     8    4   75 1    
     9    5    6 1    
    10    5   35 1    
    11    5   76 1    
    12    6    7 1    
    13    6   77 1    
    14    6   78 1    
    15    7    8 1    
    16    8    9 1    
    17    8   79 1    
    18    8   80 1    
    19    9   10 ar   
    20    9   14 ar   
    21   10   11 ar   
    22   10   81 1    
    23   11   12 ar   
    24   11   71 1    
    25   12   13 ar   
    26   12   82 1    
    27   13   14 ar   
    28   13   15 1    
    29   14   83 1    
    30   15   16 1    
    31   15   84 1    
    32   15   85 1    
    33   16   17 1    
    34   17   18 1    
    35   17   86 1    
    36   17   87 1    
    37   18   19 1    
    38   18   37 1    
    39   18   88 1    
    40   19   20 am   BACKBONE|DICT|INTERRES
    41   19   89 1    
    42   20   21 2    
    43   20   22 1    
    44   22   23 1    
    45   22   24 1    
    46   22   90 1    
    47   23   91 1    
    48   23   92 1    
    49   23   93 1    
    50   24   25 am   BACKBONE|DICT|INTERRES
    51   24   94 1    
    52   25   26 2    
    53   25   27 1    
    54   27   28 1    
    55   27   29 1    
    56   27   95 1    
    57   28   96 1    
    58   28   97 1    
    59   28   98 1    
    60   29   30 am   BACKBONE|DICT|INTERRES
    61   29   99 1    
    62   30   31 2    
    63   30   32 1    
    64   32   33 1    
    65   32   34 1    
    66   32  100 1    
    67   33  101 1    
    68   33  102 1    
    69   33  103 1    
    70   34   35 am   BACKBONE|DICT|INTERRES
    71   34  104 1    
    72   35   36 2    
    73   37   38 2    
    74   37   39 am   BACKBONE|DICT|INTERRES
    75   39   40 1    
    76   39  105 1    
    77   40   41 1    
    78   40   42 1    
    79   40  106 1    
    80   41  107 1    
    81   41  108 1    
    82   41  109 1    
    83   42   43 2    
    84   42   44 am   BACKBONE|DICT|INTERRES
    85   44   45 1    
    86   44  110 1    
    87   45   46 1    
    88   45   47 1    
    89   45  111 1    
    90   46  112 1    
    91   46  113 1    
    92   46  114 1    
    93   47   48 2    
    94   47   49 am   BACKBONE|DICT|INTERRES
    95   49   50 1    
    96   49  115 1    
    97   50   51 1    
    98   50   52 1    
    99   50  116 1    
   100   51  117 1    
   101   51  118 1    
   102   51  119 1    
   103   52   53 2    
   104   52   54 am   BACKBONE|DICT|INTERRES
   105   54   55 1    
   106   54  120 1    
   107   55   56 1    
   108   55   57 1    
   109   55  121 1    
   110   56  122 1    
   111   56  123 1    
   112   56  124 1    
   113   57   58 2    
   114   57   59 am   BACKBONE|DICT|INTERRES
   115   59   60 1    
   116   59  125 1    
   117   60   61 1    
   118   60   62 1    
   119   60  126 1    
   120   61  127 1    
   121   61  128 1    
   122   61  129 1    
   123   62   63 2    
   124   62   64 am   BACKBONE|DICT|INTERRES
   125   64   65 1    
   126   64  130 1    
   127   65   66 1    
   128   65   69 1    
   129   65  131 1    
   130   66   67 am   BACKBONE|DICT|INTERRES
   131   66   68 2    
   132   67  132 1    
   133   67  133 1    
   134   69   70 1    
   135   69  134 1    
   136   69  135 1    
   137   70   71 1    
   138   71  136 1    
   139   71  137 1    
@<TRIPOS>SUBSTRUCTURE
     1 UNK         1 GROUP             0       ****    0 ROOT    
