@<TRIPOS>MOLECULE
3R137
137   139    1
SMALL
USER_CHARGES


@<TRIPOS>ATOM
      1 CA         32.8509   -5.9682   -5.2980 C.3       0 UNK        -0.2020 
      2 C          31.5194   -6.4591   -4.7505 C.2       0 UNK         0.4855 
      3 O          30.9306   -7.3838   -5.3115 O.2       0 UNK        -0.5197 
      4 N          31.0438   -5.8547   -3.6550 N.am      1 UNK        -0.4892 
      5 CA         29.7598   -6.1653   -3.0152 C.3       1 UNK         0.0835 
      6 C6         29.7173   -5.7313   -1.5256 C.3       12 UNK        -0.0855 
      7 S7         30.3295   -4.0385   -1.2227 S.3       12 UNK        -0.2931 
      8 C8         28.7768   -3.1096   -0.9606 C.3       12 UNK         0.0378 
      9 C9         28.9168   -1.5836   -0.9610 C.ar      12 UNK        -0.0802 
     10 C10        30.1347   -0.9318   -1.1992 C.ar      12 UNK        -0.0944 
     11 C11        30.2070    0.4613   -1.2618 C.ar      12 UNK        -0.0787 
     12 C12        29.0575    1.2180   -1.0318 C.ar      12 UNK        -0.0862 
     13 C13        27.8382    0.5895   -0.7656 C.ar      12 UNK        -0.0733 
     14 C14        27.7733   -0.8078   -0.7398 C.ar      12 UNK        -0.0832 
     15 C15        26.5913    1.4243   -0.5127 C.3       12 UNK         0.0240 
     16 S16        25.4466    1.3981   -1.9274 S.3       12 UNK        -0.2522 
     17 C17        26.4788    2.0649   -3.2803 C.3       12 UNK        -0.0967 
     18 CA         26.9272    0.9519   -4.2758 C.3       5 UNK         0.0660 
     19 N          25.8083    0.1859   -4.8333 N.am      5 UNK        -0.4015 
     20 C          24.8254    0.6719   -5.6078 C.2       4 UNK         0.4946 
     21 O          24.7398    1.8593   -5.9249 O.2       4 UNK        -0.5353 
     22 CA         23.7607   -0.3085   -6.1404 C.3       4 UNK         0.0277 
     23 CB         23.6964   -0.2647   -7.6775 C.3       4 UNK        -0.1981 
     24 N          23.9824   -1.6913   -5.7114 N.am      4 UNK        -0.4209 
     25 C          23.5846   -2.2052   -4.5390 C.2       3 UNK         0.4942 
     26 O          22.8946   -1.5964   -3.7212 O.2       3 UNK        -0.5208 
     27 CA         24.0593   -3.6336   -4.2110 C.3       3 UNK         0.0250 
     28 CB         22.9767   -4.6596   -4.5834 C.3       3 UNK        -0.1990 
     29 N          25.3241   -4.0047   -4.8597 N.am      3 UNK        -0.4232 
     30 C          26.5048   -3.4161   -4.6213 C.2       2 UNK         0.4993 
     31 O          26.6515   -2.4742   -3.8413 O.2       2 UNK        -0.5286 
     32 CA         27.7125   -3.9292   -5.4236 C.3       2 UNK         0.0209 
     33 CB         28.3377   -2.7811   -6.2301 C.3       2 UNK        -0.1931 
     34 N          28.7376   -4.5392   -4.5730 N.am      2 UNK        -0.4546 
     35 C          28.5518   -5.6297   -3.8121 C.2       1 UNK         0.5154 
     36 O          27.4819   -6.2377   -3.7450 O.2       1 UNK        -0.5181 
     37 C          27.8492    1.4357   -5.4182 C.2       5 UNK         0.5014 
     38 O          28.0905    0.6760   -6.3591 O.2       5 UNK        -0.5248 
     39 N          28.3410    2.6813   -5.3464 N.am      6 UNK        -0.4434 
     40 CA         29.2290    3.2843   -6.3459 C.3       6 UNK         0.0363 
     41 CB         29.7699    4.6171   -5.8071 C.3       6 UNK        -0.1936 
     42 C          28.5918    3.4800   -7.7360 C.2       6 UNK         0.5081 
     43 O          29.3272    3.5932   -8.7193 O.2       6 UNK        -0.5248 
     44 N          27.2511    3.4896   -7.8092 N.am      7 UNK        -0.4718 
     45 CA         26.4714    3.6310   -9.0449 C.3       7 UNK         0.0273 
     46 CB         25.0004    3.9080   -8.6967 C.3       7 UNK        -0.1935 
     47 C          26.5871    2.4330  -10.0071 C.2       7 UNK         0.5018 
     48 O          26.2024    2.5641  -11.1688 O.2       7 UNK        -0.5186 
     49 N          27.1574    1.3115   -9.5428 N.am      8 UNK        -0.4240 
     50 CA         27.5292    0.1496  -10.3577 C.3       8 UNK         0.0235 
     51 CB         27.6195   -1.0814   -9.4397 C.3       8 UNK        -0.2000 
     52 C          28.8437    0.3440  -11.1494 C.2       8 UNK         0.4941 
     53 O          29.3778   -0.6432  -11.6566 O.2       8 UNK        -0.5273 
     54 N          29.3400    1.5897  -11.2337 N.am      9 UNK        -0.4262 
     55 CA         30.6488    2.0185  -11.7378 C.3       9 UNK         0.0264 
     56 CB         30.8911    1.5849  -13.2007 C.3       9 UNK        -0.1955 
     57 C          31.7500    1.5730  -10.7629 C.2       9 UNK         0.5031 
     58 O          32.5891    0.7393  -11.1105 O.2       9 UNK        -0.5390 
     59 N          31.6817    2.1460   -9.5518 N.am      10 UNK        -0.4204 
     60 CA         32.4318    1.8258   -8.3321 C.3       10 UNK         0.0237 
     61 CB         33.9514    1.6924   -8.5747 C.3       10 UNK        -0.1985 
     62 C          31.8408    0.6081   -7.6002 C.2       10 UNK         0.4970 
     63 O          31.0026   -0.1116   -8.1439 O.2       10 UNK        -0.4914 
     64 N          32.2710    0.4404   -6.3459 N.am      11 UNK        -0.4285 
     65 CA         31.7532   -0.5403   -5.3781 C.3       11 UNK         0.1007 
     66 C          32.0115   -2.0394   -5.7158 C.2       11 UNK         0.5703 
     67 N          32.8512   -2.3687   -6.6897 N.am      11 UNK        -0.7361 
     68 O          31.4375   -2.9190   -5.0766 O.2       11 UNK        -0.4986 
     69 C69        32.2633   -0.2076   -3.9536 C.3       12 UNK        -0.0947 
     70 S70        31.7198    1.4362   -3.3698 S.3       12 UNK        -0.2240 
     71 C71        31.5255    1.1503   -1.5809 C.3       12 UNK         0.0194 
     72 H72        32.7331   -5.6492   -6.3329 H         1 UNK         0.0906 
     73 H73        33.2402   -5.1260   -4.7258 H         1 UNK         0.0906 
     74 H74        33.5884   -6.7698   -5.2688 H         1 UNK         0.0906 
     75 H75        31.5473   -5.0766   -3.2491 H         1 UNK         0.3140 
     76 H76        29.6516   -7.2526   -3.0247 H         1 UNK         0.1085 
     77 H77        28.7166   -5.8513   -1.1050 H         1 UNK         0.0836 
     78 H78        30.3517   -6.4045   -0.9469 H         1 UNK         0.0836 
     79 H79        28.0693   -3.3872   -1.7423 H         1 UNK         0.0731 
     80 H80        28.3380   -3.4278   -0.0139 H         1 UNK         0.0731 
     81 H81        31.0382   -1.4999   -1.3536 H         1 UNK         0.1312 
     82 H82        29.1133    2.2974   -1.0675 H         1 UNK         0.1406 
     83 H83        26.8227   -1.2921   -0.5601 H         1 UNK         0.1631 
     84 H84        26.8549    2.4583   -0.2849 H         1 UNK         0.0717 
     85 H85        26.0726    1.0420    0.3675 H         1 UNK         0.0717 
     86 H86        25.9006    2.8369   -3.7907 H         1 UNK         0.0934 
     87 H87        27.3391    2.5732   -2.8444 H         1 UNK         0.0934 
     88 H88        27.5249    0.2315   -3.7146 H         1 UNK         0.0739 
     89 H89        25.8313   -0.8037   -4.6133 H         1 UNK         0.3093 
     90 H90        22.7967    0.0308   -5.7553 H         1 UNK         0.0818 
     91 H91        22.9315   -0.9386   -8.0636 H         1 UNK         0.0819 
     92 H92        23.4481    0.7370   -8.0305 H         1 UNK         0.0819 
     93 H93        24.6481   -0.5392   -8.1300 H         1 UNK         0.0819 
     94 H94        24.5346   -2.2737   -6.3236 H         1 UNK         0.3041 
     95 H95        24.2180   -3.6806   -3.1314 H         1 UNK         0.0784 
     96 H96        22.0311   -4.4246   -4.0924 H         1 UNK         0.0793 
     97 H97        22.7896   -4.6792   -5.6579 H         1 UNK         0.0793 
     98 H98        23.2589   -5.6656   -4.2719 H         1 UNK         0.0793 
     99 H99        25.2885   -4.7866   -5.4985 H         1 UNK         0.3024 
    100 H100       27.3721   -4.6912   -6.1280 H         1 UNK         0.1171 
    101 H101       27.5879   -2.2900   -6.8494 H         1 UNK         0.0786 
    102 H102       29.1284   -3.1361   -6.8913 H         1 UNK         0.0786 
    103 H103       28.7622   -2.0165   -5.5782 H         1 UNK         0.0786 
    104 H104       29.6494   -4.0952   -4.5677 H         1 UNK         0.2977 
    105 H105       28.0953    3.2595   -4.5567 H         1 UNK         0.3127 
    106 H106       30.0733    2.6069   -6.4738 H         1 UNK         0.0770 
    107 H107       28.9689    5.3348   -5.6255 H         1 UNK         0.0814 
    108 H108       30.4610    5.0735   -6.5174 H         1 UNK         0.0814 
    109 H109       30.3161    4.4756   -4.8741 H         1 UNK         0.0814 
    110 H110       26.7224    3.3480   -6.9587 H         1 UNK         0.2983 
    111 H111       26.8602    4.5016   -9.5777 H         1 UNK         0.0947 
    112 H112       24.4231    4.1291   -9.5955 H         1 UNK         0.0806 
    113 H113       24.9005    4.7649   -8.0303 H         1 UNK         0.0806 
    114 H114       24.5307    3.0503   -8.2166 H         1 UNK         0.0806 
    115 H115       27.4544    1.2906   -8.5741 H         1 UNK         0.3000 
    116 H116       26.7392   -0.0305  -11.0897 H         1 UNK         0.0850 
    117 H117       27.8207   -1.9892  -10.0097 H         1 UNK         0.0810 
    118 H118       26.6910   -1.2455   -8.8965 H         1 UNK         0.0810 
    119 H119       28.4227   -0.9700   -8.7098 H         1 UNK         0.0810 
    120 H120       28.8162    2.3119  -10.7586 H         1 UNK         0.3040 
    121 H121       30.6383    3.1098  -11.7256 H         1 UNK         0.0766 
    122 H122       30.0774    1.9073  -13.8501 H         1 UNK         0.0812 
    123 H123       30.9940    0.5045  -13.3020 H         1 UNK         0.0812 
    124 H124       31.8100    2.0291  -13.5846 H         1 UNK         0.0812 
    125 H125       30.8922    2.7690   -9.3894 H         1 UNK         0.3205 
    126 H126       32.2814    2.6868   -7.6788 H         1 UNK         0.0754 
    127 H127       34.5017    1.6934   -7.6334 H         1 UNK         0.0769 
    128 H128       34.3334    2.5222   -9.1696 H         1 UNK         0.0769 
    129 H129       34.2036    0.7652   -9.0901 H         1 UNK         0.0769 
    130 H130       32.9644    1.0755   -5.9801 H         1 UNK         0.2981 
    131 H131       30.6672   -0.4294   -5.3737 H         1 UNK         0.0541 
    132 H132       33.0041   -3.3399   -6.9032 H         1 UNK         0.3459 
    133 H133       33.3087   -1.6534   -7.2302 H         1 UNK         0.3459 
    134 H134       33.3538   -0.2406   -3.9204 H         1 UNK         0.0612 
    135 H135       31.9229   -0.9656   -3.2523 H         1 UNK         0.0612 
    136 H136       31.5722    2.1116   -1.0671 H         1 UNK         0.0624 
    137 H137       32.3673    0.5651   -1.2074 H         1 UNK         0.0624 
@<TRIPOS>BOND
     1    1    2 1    
     2    1   72 1    
     3    1   73 1    
     4    1   74 1    
     5    2    3 2    
     6    2    4 am   BACKBONE|DICT|INTERRES
     7    4    5 1    
     8    4   75 1    
     9    5    6 1    
    10    5   35 1    
    11    5   76 1    
    12    6    7 1    
    13    6   77 1    
    14    6   78 1    
    15    7    8 1    
    16    8    9 1    
    17    8   79 1    
    18    8   80 1    
    19    9   10 ar   
    20    9   14 ar   
    21   10   11 ar   
    22   10   81 1    
    23   11   12 ar   
    24   11   71 1    
    25   12   13 ar   
    26   12   82 1    
    27   13   14 ar   
    28   13   15 1    
    29   14   83 1    
    30   15   16 1    
    31   15   84 1    
    32   15   85 1    
    33   16   17 1    
    34   17   18 1    
    35   17   86 1    
    36   17   87 1    
    37   18   19 1    
    38   18   37 1    
    39   18   88 1    
    40   19   20 am   BACKBONE|DICT|INTERRES
    41   19   89 1    
    42   20   21 2    
    43   20   22 1    
    44   22   23 1    
    45   22   24 1    
    46   22   90 1    
    47   23   91 1    
    48   23   92 1    
    49   23   93 1    
    50   24   25 am   BACKBONE|DICT|INTERRES
    51   24   94 1    
    52   25   26 2    
    53   25   27 1    
    54   27   28 1    
    55   27   29 1    
    56   27   95 1    
    57   28   96 1    
    58   28   97 1    
    59   28   98 1    
    60   29   30 am   BACKBONE|DICT|INTERRES
    61   29   99 1    
    62   30   31 2    
    63   30   32 1    
    64   32   33 1    
    65   32   34 1    
    66   32  100 1    
    67   33  101 1    
    68   33  102 1    
    69   33  103 1    
    70   34   35 am   BACKBONE|DICT|INTERRES
    71   34  104 1    
    72   35   36 2    
    73   37   38 2    
    74   37   39 am   BACKBONE|DICT|INTERRES
    75   39   40 1    
    76   39  105 1    
    77   40   41 1    
    78   40   42 1    
    79   40  106 1    
    80   41  107 1    
    81   41  108 1    
    82   41  109 1    
    83   42   43 2    
    84   42   44 am   BACKBONE|DICT|INTERRES
    85   44   45 1    
    86   44  110 1    
    87   45   46 1    
    88   45   47 1    
    89   45  111 1    
    90   46  112 1    
    91   46  113 1    
    92   46  114 1    
    93   47   48 2    
    94   47   49 am   BACKBONE|DICT|INTERRES
    95   49   50 1    
    96   49  115 1    
    97   50   51 1    
    98   50   52 1    
    99   50  116 1    
   100   51  117 1    
   101   51  118 1    
   102   51  119 1    
   103   52   53 2    
   104   52   54 am   BACKBONE|DICT|INTERRES
   105   54   55 1    
   106   54  120 1    
   107   55   56 1    
   108   55   57 1    
   109   55  121 1    
   110   56  122 1    
   111   56  123 1    
   112   56  124 1    
   113   57   58 2    
   114   57   59 am   BACKBONE|DICT|INTERRES
   115   59   60 1    
   116   59  125 1    
   117   60   61 1    
   118   60   62 1    
   119   60  126 1    
   120   61  127 1    
   121   61  128 1    
   122   61  129 1    
   123   62   63 2    
   124   62   64 am   BACKBONE|DICT|INTERRES
   125   64   65 1    
   126   64  130 1    
   127   65   66 1    
   128   65   69 1    
   129   65  131 1    
   130   66   67 am   BACKBONE|DICT|INTERRES
   131   66   68 2    
   132   67  132 1    
   133   67  133 1    
   134   69   70 1    
   135   69  134 1    
   136   69  135 1    
   137   70   71 1    
   138   71  136 1    
   139   71  137 1    
@<TRIPOS>SUBSTRUCTURE
     1 UNK         1 GROUP             0       ****    0 ROOT    
