@<TRIPOS>MOLECULE
3R137
137   139    1
SMALL
USER_CHARGES


@<TRIPOS>ATOM
      1 CA         29.3525    0.0081    0.8967 C.3       0 UNK        -0.2020 
      2 C          29.0787   -0.9895   -0.2182 C.2       0 UNK         0.4855 
      3 O          29.2481   -0.6559   -1.3883 O.2       0 UNK        -0.5197 
      4 N          28.6535   -2.2092    0.1371 N.am      1 UNK        -0.4892 
      5 CA         28.3394   -3.2980   -0.8016 C.3       1 UNK         0.0835 
      6 C6         28.6277   -4.6734   -0.1408 C.3       12 UNK        -0.0855 
      7 S7         28.9535   -6.0507   -1.2968 S.3       12 UNK        -0.2931 
      8 C8         30.6453   -5.7081   -1.8983 C.3       12 UNK         0.0378 
      9 C9         30.6314   -4.7617   -3.0917 C.ar      12 UNK        -0.0802 
     10 C10        31.2046   -3.4876   -3.0037 C.ar      12 UNK        -0.0944 
     11 C11        31.0988   -2.5843   -4.0670 C.ar      12 UNK        -0.0787 
     12 C12        30.4305   -2.9799   -5.2304 C.ar      12 UNK        -0.0862 
     13 C13        29.8883   -4.2621   -5.3475 C.ar      12 UNK        -0.0733 
     14 C14        30.0017   -5.1519   -4.2776 C.ar      12 UNK        -0.0832 
     15 C15        29.1718   -4.6785   -6.6256 C.3       12 UNK         0.0240 
     16 S16        27.4056   -5.0625   -6.3761 S.3       12 UNK        -0.2522 
     17 C17        26.7473   -3.5480   -5.5988 C.3       12 UNK        -0.0967 
     18 CA         26.4240   -2.4256   -6.6199 C.3       5 UNK         0.0660 
     19 N          25.1652   -1.7409   -6.3203 N.am      5 UNK        -0.4015 
     20 C          24.5223   -0.9302   -7.1735 C.2       4 UNK         0.4946 
     21 O          24.8965   -0.7061   -8.3249 O.2       4 UNK        -0.5353 
     22 CA         23.2709   -0.2162   -6.6364 C.3       4 UNK         0.0277 
     23 CB         22.0433   -1.1383   -6.7112 C.3       4 UNK        -0.1981 
     24 N          23.4420    0.2709   -5.2651 N.am      4 UNK        -0.4209 
     25 C          24.3182    1.2212   -4.9094 C.2       3 UNK         0.4942 
     26 O          25.0482    1.8118   -5.7039 O.2       3 UNK        -0.5208 
     27 CA         24.4266    1.5471   -3.4116 C.3       3 UNK         0.0250 
     28 CB         23.3940    2.6161   -3.0198 C.3       3 UNK        -0.1990 
     29 N          24.2960    0.3882   -2.5202 N.am      3 UNK        -0.4232 
     30 C          25.0747   -0.7036   -2.5419 C.2       2 UNK         0.4993 
     31 O          25.9205   -0.9239   -3.4131 O.2       2 UNK        -0.5286 
     32 CA         24.8442   -1.7089   -1.3994 C.3       2 UNK         0.0209 
     33 CB         23.8406   -2.8077   -1.8053 C.3       2 UNK        -0.1931 
     34 N          26.1140   -2.2437   -0.8862 N.am      2 UNK        -0.4546 
     35 C          26.9228   -3.1761   -1.4160 C.2       1 UNK         0.5154 
     36 O          26.6074   -3.9073   -2.3535 O.2       1 UNK        -0.5181 
     37 C          27.5742   -1.4102   -6.7207 C.2       5 UNK         0.5014 
     38 O          28.3426   -1.4588   -7.6819 O.2       5 UNK        -0.5248 
     39 N          27.6483   -0.4895   -5.7467 N.am      6 UNK        -0.4434 
     40 CA         28.6393    0.5865   -5.6926 C.3       6 UNK         0.0363 
     41 CB         28.4578    1.4020   -4.4047 C.3       6 UNK        -0.1936 
     42 C          28.6096    1.5013   -6.9250 C.2       6 UNK         0.5081 
     43 O          29.6729    1.8343   -7.4474 O.2       6 UNK        -0.5248 
     44 N          27.4031    1.8557   -7.3877 N.am      7 UNK        -0.4718 
     45 CA         27.1768    2.6137   -8.6179 C.3       7 UNK         0.0273 
     46 CB         25.7064    3.0553   -8.6892 C.3       7 UNK        -0.1935 
     47 C          27.5697    1.8310   -9.8812 C.2       7 UNK         0.5018 
     48 O          28.2028    2.4069  -10.7660 O.2       7 UNK        -0.5186 
     49 N          27.2021    0.5418   -9.9422 N.am      8 UNK        -0.4240 
     50 CA         27.5014   -0.3517  -11.0654 C.3       8 UNK         0.0235 
     51 CB         26.7110   -1.6619  -10.9175 C.3       8 UNK        -0.2000 
     52 C          29.0031   -0.6385  -11.2269 C.2       8 UNK         0.4941 
     53 O          29.5123   -0.5757  -12.3467 O.2       8 UNK        -0.5273 
     54 N          29.6845   -0.9392  -10.1134 N.am      9 UNK        -0.4262 
     55 CA         31.1252   -1.2077  -10.0772 C.3       9 UNK         0.0264 
     56 CB         31.4501   -2.0214   -8.8176 C.3       9 UNK        -0.1955 
     57 C          31.9893    0.0648  -10.1160 C.2       9 UNK         0.5031 
     58 O          33.1805   -0.0407  -10.4119 O.2       9 UNK        -0.5390 
     59 N          31.3893    1.2227   -9.8015 N.am      10 UNK        -0.4204 
     60 CA         32.0136    2.5388   -9.6364 C.3       10 UNK         0.0237 
     61 CB         32.6174    3.0491  -10.9630 C.3       10 UNK        -0.1985 
     62 C          33.0082    2.5489   -8.4599 C.2       10 UNK         0.4970 
     63 O          34.1700    2.9241   -8.6310 O.2       10 UNK        -0.4914 
     64 N          32.5243    2.1285   -7.2829 N.am      11 UNK        -0.4285 
     65 CA         33.2851    2.1187   -6.0203 C.3       11 UNK         0.1007 
     66 C          33.5944    3.5333   -5.4462 C.2       11 UNK         0.5703 
     67 N          32.9127    4.5908   -5.8723 N.am      11 UNK        -0.7361 
     68 O          34.4750    3.6724   -4.6006 O.2       11 UNK        -0.4986 
     69 C69        32.6126    1.2362   -4.9351 C.3       12 UNK        -0.0947 
     70 S70        32.4820   -0.5212   -5.3960 S.3       12 UNK        -0.2240 
     71 C71        31.6312   -1.1617   -3.9127 C.3       12 UNK         0.0194 
     72 H72        29.1596   -0.4151    1.8823 H         1 UNK         0.0906 
     73 H73        30.3933    0.3290    0.8634 H         1 UNK         0.0906 
     74 H74        28.7214    0.8881    0.7752 H         1 UNK         0.0906 
     75 H75        28.5364   -2.4269    1.1175 H         1 UNK         0.3140 
     76 H76        29.0078   -3.1858   -1.6512 H         1 UNK         0.1085 
     77 H77        29.5016   -4.5994    0.5089 H         1 UNK         0.0836 
     78 H78        27.8033   -4.9601    0.5147 H         1 UNK         0.0836 
     79 H79        31.2573   -5.3148   -1.0851 H         1 UNK         0.0731 
     80 H80        31.1069   -6.6486   -2.2023 H         1 UNK         0.0731 
     81 H81        31.6867   -3.1791   -2.0859 H         1 UNK         0.1312 
     82 H82        30.3195   -2.2798   -6.0436 H         1 UNK         0.1406 
     83 H83        29.5582   -6.1359   -4.3515 H         1 UNK         0.1631 
     84 H84        29.6657   -5.5610   -7.0341 H         1 UNK         0.0717 
     85 H85        29.2566   -3.9074   -7.3902 H         1 UNK         0.0717 
     86 H86        25.8375   -3.8561   -5.0809 H         1 UNK         0.0934 
     87 H87        27.4129   -3.2115   -4.8010 H         1 UNK         0.0934 
     88 H88        26.3014   -2.8758   -7.6076 H         1 UNK         0.0739 
     89 H89        24.8362   -1.8030   -5.3673 H         1 UNK         0.3093 
     90 H90        23.0869    0.6491   -7.2772 H         1 UNK         0.0818 
     91 H91        21.1343   -0.6131   -6.4172 H         1 UNK         0.0819 
     92 H92        21.8906   -1.5002   -7.7291 H         1 UNK         0.0819 
     93 H93        22.1500   -2.0123   -6.0674 H         1 UNK         0.0819 
     94 H94        22.8761   -0.1560   -4.5463 H         1 UNK         0.3041 
     95 H95        25.4207    1.9654   -3.2448 H         1 UNK         0.0784 
     96 H96        23.4845    3.4977   -3.6565 H         1 UNK         0.0793 
     97 H97        22.3719    2.2478   -3.1172 H         1 UNK         0.0793 
     98 H98        23.5357    2.9482   -1.9911 H         1 UNK         0.0793 
     99 H99        23.6087    0.4747   -1.7850 H         1 UNK         0.3024 
    100 H100       24.4085   -1.1653   -0.5592 H         1 UNK         0.1171 
    101 H101       22.8521   -2.3828   -1.9829 H         1 UNK         0.0786 
    102 H102       23.7348   -3.5593   -1.0230 H         1 UNK         0.0786 
    103 H103       24.1370   -3.3164   -2.7231 H         1 UNK         0.0786 
    104 H104       26.5137   -1.7126   -0.1254 H         1 UNK         0.2977 
    105 H105       26.9937   -0.5497   -4.9692 H         1 UNK         0.3127 
    106 H106       29.6202    0.1135   -5.6667 H         1 UNK         0.0770 
    107 H107       27.5016    1.9237   -4.3913 H         1 UNK         0.0814 
    108 H108       29.2396    2.1554   -4.3052 H         1 UNK         0.0814 
    109 H109       28.5036    0.7650   -3.5217 H         1 UNK         0.0814 
    110 H110       26.5778    1.5972   -6.8518 H         1 UNK         0.2983 
    111 H111       27.8005    3.5096   -8.5775 H         1 UNK         0.0947 
    112 H112       25.5125    3.6286   -9.5967 H         1 UNK         0.0806 
    113 H113       25.4430    3.6891   -7.8422 H         1 UNK         0.0806 
    114 H114       25.0280    2.2010   -8.6886 H         1 UNK         0.0806 
    115 H115       26.6574    0.1501   -9.1810 H         1 UNK         0.3000 
    116 H116       27.1629    0.1431  -11.9783 H         1 UNK         0.0850 
    117 H117       26.9147   -2.3382  -11.7488 H         1 UNK         0.0810 
    118 H118       25.6368   -1.4766  -10.9068 H         1 UNK         0.0810 
    119 H119       26.9675   -2.1879   -9.9974 H         1 UNK         0.0810 
    120 H120       29.1772   -1.0197   -9.2313 H         1 UNK         0.3040 
    121 H121       31.3904   -1.8109  -10.9481 H         1 UNK         0.0766 
    122 H122       32.5128   -2.2618   -8.7645 H         1 UNK         0.0812 
    123 H123       30.9025   -2.9628   -8.7997 H         1 UNK         0.0812 
    124 H124       31.1978   -1.4604   -7.9191 H         1 UNK         0.0812 
    125 H125       30.4176    1.1777   -9.5211 H         1 UNK         0.3205 
    126 H126       31.2084    3.2228   -9.3635 H         1 UNK         0.0754 
    127 H127       32.9732    4.0746  -10.8579 H         1 UNK         0.0769 
    128 H128       31.8757    3.0432  -11.7618 H         1 UNK         0.0769 
    129 H129       33.4649    2.4449  -11.2876 H         1 UNK         0.0769 
    130 H130       31.5419    1.8712   -7.2291 H         1 UNK         0.2981 
    131 H131       34.2570    1.6731   -6.2411 H         1 UNK         0.0541 
    132 H132       32.1840    4.4870   -6.5594 H         1 UNK         0.3459 
    133 H133       33.1268    5.5004   -5.4951 H         1 UNK         0.3459 
    134 H134       31.6142    1.6143   -4.7102 H         1 UNK         0.0612 
    135 H135       33.1758    1.2813   -4.0007 H         1 UNK         0.0612 
    136 H136       32.3213   -1.1019   -3.0699 H         1 UNK         0.0624 
    137 H137       30.7911   -0.5112   -3.6689 H         1 UNK         0.0624 
@<TRIPOS>BOND
     1    1    2 1    
     2    1   72 1    
     3    1   73 1    
     4    1   74 1    
     5    2    3 2    
     6    2    4 am   BACKBONE|DICT|INTERRES
     7    4    5 1    
     8    4   75 1    
     9    5    6 1    
    10    5   35 1    
    11    5   76 1    
    12    6    7 1    
    13    6   77 1    
    14    6   78 1    
    15    7    8 1    
    16    8    9 1    
    17    8   79 1    
    18    8   80 1    
    19    9   10 ar   
    20    9   14 ar   
    21   10   11 ar   
    22   10   81 1    
    23   11   12 ar   
    24   11   71 1    
    25   12   13 ar   
    26   12   82 1    
    27   13   14 ar   
    28   13   15 1    
    29   14   83 1    
    30   15   16 1    
    31   15   84 1    
    32   15   85 1    
    33   16   17 1    
    34   17   18 1    
    35   17   86 1    
    36   17   87 1    
    37   18   19 1    
    38   18   37 1    
    39   18   88 1    
    40   19   20 am   BACKBONE|DICT|INTERRES
    41   19   89 1    
    42   20   21 2    
    43   20   22 1    
    44   22   23 1    
    45   22   24 1    
    46   22   90 1    
    47   23   91 1    
    48   23   92 1    
    49   23   93 1    
    50   24   25 am   BACKBONE|DICT|INTERRES
    51   24   94 1    
    52   25   26 2    
    53   25   27 1    
    54   27   28 1    
    55   27   29 1    
    56   27   95 1    
    57   28   96 1    
    58   28   97 1    
    59   28   98 1    
    60   29   30 am   BACKBONE|DICT|INTERRES
    61   29   99 1    
    62   30   31 2    
    63   30   32 1    
    64   32   33 1    
    65   32   34 1    
    66   32  100 1    
    67   33  101 1    
    68   33  102 1    
    69   33  103 1    
    70   34   35 am   BACKBONE|DICT|INTERRES
    71   34  104 1    
    72   35   36 2    
    73   37   38 2    
    74   37   39 am   BACKBONE|DICT|INTERRES
    75   39   40 1    
    76   39  105 1    
    77   40   41 1    
    78   40   42 1    
    79   40  106 1    
    80   41  107 1    
    81   41  108 1    
    82   41  109 1    
    83   42   43 2    
    84   42   44 am   BACKBONE|DICT|INTERRES
    85   44   45 1    
    86   44  110 1    
    87   45   46 1    
    88   45   47 1    
    89   45  111 1    
    90   46  112 1    
    91   46  113 1    
    92   46  114 1    
    93   47   48 2    
    94   47   49 am   BACKBONE|DICT|INTERRES
    95   49   50 1    
    96   49  115 1    
    97   50   51 1    
    98   50   52 1    
    99   50  116 1    
   100   51  117 1    
   101   51  118 1    
   102   51  119 1    
   103   52   53 2    
   104   52   54 am   BACKBONE|DICT|INTERRES
   105   54   55 1    
   106   54  120 1    
   107   55   56 1    
   108   55   57 1    
   109   55  121 1    
   110   56  122 1    
   111   56  123 1    
   112   56  124 1    
   113   57   58 2    
   114   57   59 am   BACKBONE|DICT|INTERRES
   115   59   60 1    
   116   59  125 1    
   117   60   61 1    
   118   60   62 1    
   119   60  126 1    
   120   61  127 1    
   121   61  128 1    
   122   61  129 1    
   123   62   63 2    
   124   62   64 am   BACKBONE|DICT|INTERRES
   125   64   65 1    
   126   64  130 1    
   127   65   66 1    
   128   65   69 1    
   129   65  131 1    
   130   66   67 am   BACKBONE|DICT|INTERRES
   131   66   68 2    
   132   67  132 1    
   133   67  133 1    
   134   69   70 1    
   135   69  134 1    
   136   69  135 1    
   137   70   71 1    
   138   71  136 1    
   139   71  137 1    
@<TRIPOS>SUBSTRUCTURE
     1 UNK         1 GROUP             0       ****    0 ROOT    
