@<TRIPOS>MOLECULE
3R137
137   139    1
SMALL
USER_CHARGES


@<TRIPOS>ATOM
      1 CA         23.8577   -4.8213   -8.4441 C.3       0 UNK        -0.2020 
      2 C          24.4778   -5.4621   -7.2119 C.2       0 UNK         0.4855 
      3 O          23.9810   -6.4894   -6.7493 O.2       0 UNK        -0.5197 
      4 N          25.5561   -4.8743   -6.6737 N.am      1 UNK        -0.4892 
      5 CA         26.2708   -5.3922   -5.4949 C.3       1 UNK         0.0835 
      6 C6         27.7595   -4.9657   -5.4831 C.3       12 UNK        -0.0855 
      7 S7         28.0377   -3.1851   -5.1944 S.3       12 UNK        -0.2931 
      8 C8         29.1899   -3.2472   -3.7906 C.3       12 UNK         0.0378 
      9 C9         29.6080   -1.8457   -3.3839 C.ar      12 UNK        -0.0802 
     10 C10        30.7697   -1.2704   -3.9069 C.ar      12 UNK        -0.0944 
     11 C11        31.1313    0.0342   -3.5574 C.ar      12 UNK        -0.0787 
     12 C12        30.3217    0.7625   -2.6800 C.ar      12 UNK        -0.0862 
     13 C13        29.1510    0.1997   -2.1597 C.ar      12 UNK        -0.0733 
     14 C14        28.8134   -1.1139   -2.4997 C.ar      12 UNK        -0.0832 
     15 C15        28.2308    0.9974   -1.2416 C.3       12 UNK         0.0240 
     16 S16        27.8392    2.6739   -1.8570 S.3       12 UNK        -0.2522 
     17 C17        27.1630    2.4494   -3.5461 C.3       12 UNK        -0.0967 
     18 CA         26.3207    1.1684   -3.8114 C.3       5 UNK         0.0660 
     19 N          25.2066    0.9476   -2.8891 N.am      5 UNK        -0.4015 
     20 C          24.2010    1.7840   -2.5924 C.2       4 UNK         0.4946 
     21 O          24.0852    2.9160   -3.0637 O.2       4 UNK        -0.5353 
     22 CA         23.1187    1.2766   -1.6120 C.3       4 UNK         0.0277 
     23 CB         21.7478    1.2111   -2.3081 C.3       4 UNK        -0.1981 
     24 N          23.4114   -0.0396   -1.0361 N.am      4 UNK        -0.4209 
     25 C          24.3651   -0.3036   -0.1316 C.2       3 UNK         0.4942 
     26 O          25.0094    0.5672    0.4520 O.2       3 UNK        -0.5208 
     27 CA         24.6949   -1.7869    0.1330 C.3       3 UNK         0.0250 
     28 CB         24.1879   -2.2100    1.5216 C.3       3 UNK        -0.1990 
     29 N          24.1768   -2.7263   -0.8729 N.am      3 UNK        -0.4232 
     30 C          24.5033   -2.7524   -2.1735 C.2       2 UNK         0.4993 
     31 O          25.2657   -1.9433   -2.7113 O.2       2 UNK        -0.5286 
     32 CA         23.7612   -3.7907   -3.0271 C.3       2 UNK         0.0209 
     33 CB         22.4267   -3.2071   -3.5215 C.3       2 UNK        -0.1931 
     34 N          24.5515   -4.2040   -4.1849 N.am      2 UNK        -0.4546 
     35 C          25.5535   -5.0924   -4.1570 C.2       1 UNK         0.5154 
     36 O          25.9072   -5.6836   -3.1348 O.2       1 UNK        -0.5181 
     37 C          25.8411    1.0369   -5.2649 C.2       5 UNK         0.5014 
     38 O          26.0111    1.9552   -6.0697 O.2       5 UNK        -0.5248 
     39 N          25.2477   -0.1235   -5.5759 N.am      6 UNK        -0.4434 
     40 CA         24.8205   -0.5000   -6.9227 C.3       6 UNK         0.0363 
     41 CB         23.6456   -1.4887   -6.8239 C.3       6 UNK        -0.1936 
     42 C          26.0114   -1.0625   -7.7201 C.2       6 UNK         0.5081 
     43 O          26.0702   -2.2663   -7.9771 O.2       6 UNK        -0.5248 
     44 N          26.9485   -0.1784   -8.0728 N.am      7 UNK        -0.4718 
     45 CA         28.1435   -0.4546   -8.8648 C.3       7 UNK         0.0273 
     46 CB         29.2204   -1.1352   -7.9970 C.3       7 UNK        -0.1935 
     47 C          28.6680    0.8582   -9.4577 C.2       7 UNK         0.5018 
     48 O          28.2964    1.9390   -8.9922 O.2       7 UNK        -0.5186 
     49 N          29.5418    0.7352  -10.4592 N.am      8 UNK        -0.4240 
     50 CA         30.2848    1.8237  -11.0836 C.3       8 UNK         0.0235 
     51 CB         29.4998    2.3745  -12.2868 C.3       8 UNK        -0.2000 
     52 C          31.6417    1.2614  -11.5167 C.2       8 UNK         0.4941 
     53 O          31.7410    0.0568  -11.7706 O.2       8 UNK        -0.5273 
     54 N          32.6614    2.1293  -11.5766 N.am      9 UNK        -0.4262 
     55 CA         34.0670    1.8756  -11.9418 C.3       9 UNK         0.0264 
     56 CB         34.1911    1.3762  -13.3947 C.3       9 UNK        -0.1955 
     57 C          34.8385    0.9541  -10.9757 C.2       9 UNK         0.5031 
     58 O          35.9674    1.2819  -10.6073 O.2       9 UNK        -0.5390 
     59 N          34.2178   -0.1563  -10.5571 N.am      10 UNK        -0.4204 
     60 CA         34.7509   -1.1713   -9.6410 C.3       10 UNK         0.0237 
     61 CB         33.7208   -2.3036   -9.4969 C.3       10 UNK        -0.1985 
     62 C          35.1500   -0.6338   -8.2545 C.2       10 UNK         0.4970 
     63 O          36.0318   -1.2123   -7.6183 O.2       10 UNK        -0.4914 
     64 N          34.5131    0.4618   -7.8230 N.am      11 UNK        -0.4285 
     65 CA         34.8571    1.2082   -6.6047 C.3       11 UNK         0.1007 
     66 C          36.1854    2.0179   -6.7000 C.2       11 UNK         0.5703 
     67 N          36.7962    2.1817   -7.8690 N.am      11 UNK        -0.7361 
     68 O          36.6776    2.5029   -5.6839 O.2       11 UNK        -0.4986 
     69 C69        33.6893    2.1177   -6.1392 C.3       12 UNK        -0.0947 
     70 S70        32.1347    1.2098   -5.8468 S.3       12 UNK        -0.2240 
     71 C71        32.3922    0.6592   -4.1324 C.3       12 UNK         0.0194 
     72 H72        23.6237   -5.5841   -9.1862 H         1 UNK         0.0906 
     73 H73        22.9324   -4.3115   -8.1780 H         1 UNK         0.0906 
     74 H74        24.5272   -4.1007   -8.9110 H         1 UNK         0.0906 
     75 H75        25.9195   -4.0129   -7.0800 H         1 UNK         0.3140 
     76 H76        26.2719   -6.4818   -5.5765 H         1 UNK         0.1085 
     77 H77        28.2978   -5.5459   -4.7312 H         1 UNK         0.0836 
     78 H78        28.2242   -5.2282   -6.4348 H         1 UNK         0.0836 
     79 H79        30.0656   -3.8390   -4.0618 H         1 UNK         0.0731 
     80 H80        28.7138   -3.7568   -2.9511 H         1 UNK         0.0731 
     81 H81        31.3842   -1.8299   -4.5991 H         1 UNK         0.1312 
     82 H82        30.5911    1.7762   -2.4163 H         1 UNK         0.1406 
     83 H83        27.9075   -1.5594   -2.1093 H         1 UNK         0.1631 
     84 H84        28.7100    1.0907   -0.2665 H         1 UNK         0.0717 
     85 H85        27.2973    0.4622   -1.0678 H         1 UNK         0.0717 
     86 H86        26.5816    3.3409   -3.7862 H         1 UNK         0.0934 
     87 H87        28.0141    2.4671   -4.2297 H         1 UNK         0.0934 
     88 H88        26.9751    0.3120   -3.6837 H         1 UNK         0.0739 
     89 H89        25.1670    0.0081   -2.5072 H         1 UNK         0.3093 
     90 H90        23.0584    2.0006   -0.7966 H         1 UNK         0.0818 
     91 H91        21.7510    0.5071   -3.1414 H         1 UNK         0.0819 
     92 H92        20.9630    0.9094   -1.6142 H         1 UNK         0.0819 
     93 H93        21.4643    2.1859   -2.7076 H         1 UNK         0.0819 
     94 H94        22.9224   -0.8239   -1.4408 H         1 UNK         0.3041 
     95 H95        25.7836   -1.8728    0.1260 H         1 UNK         0.0784 
     96 H96        24.5829   -1.5545    2.2993 H         1 UNK         0.0793 
     97 H97        23.0996   -2.1694    1.5839 H         1 UNK         0.0793 
     98 H98        24.5023   -3.2244    1.7681 H         1 UNK         0.0793 
     99 H99        23.5181   -3.4124   -0.5316 H         1 UNK         0.3024 
    100 H100       23.5570   -4.6731   -2.4156 H         1 UNK         0.1171 
    101 H101       21.8948   -3.9152   -4.1576 H         1 UNK         0.0786 
    102 H102       21.7672   -2.9711   -2.6854 H         1 UNK         0.0786 
    103 H103       22.5705   -2.2879   -4.0904 H         1 UNK         0.0786 
    104 H104       24.3550   -3.7542   -5.0648 H         1 UNK         0.2977 
    105 H105       25.1987   -0.8421   -4.8647 H         1 UNK         0.3127 
    106 H106       24.4580    0.3851   -7.4503 H         1 UNK         0.0770 
    107 H107       23.9254   -2.4005   -6.3002 H         1 UNK         0.0814 
    108 H108       23.2973   -1.7748   -7.8169 H         1 UNK         0.0814 
    109 H109       22.7984   -1.0449   -6.3011 H         1 UNK         0.0814 
    110 H110       26.8347    0.7968   -7.8100 H         1 UNK         0.2983 
    111 H111       27.8730   -1.1135   -9.6929 H         1 UNK         0.0947 
    112 H112       29.4118   -0.5785   -7.0783 H         1 UNK         0.0806 
    113 H113       30.1687   -1.2264   -8.5277 H         1 UNK         0.0806 
    114 H114       28.9172   -2.1443   -7.7224 H         1 UNK         0.0806 
    115 H115       29.8414   -0.1848  -10.7604 H         1 UNK         0.3000 
    116 H116       30.4516    2.6200  -10.3545 H         1 UNK         0.0850 
    117 H117       30.0430    3.1865  -12.7717 H         1 UNK         0.0810 
    118 H118       28.5318    2.7708  -11.9796 H         1 UNK         0.0810 
    119 H119       29.3226    1.6041  -13.0384 H         1 UNK         0.0810 
    120 H120       32.4645    3.0889  -11.3252 H         1 UNK         0.3040 
    121 H121       34.5589    2.8486  -11.8934 H         1 UNK         0.0766 
    122 H122       33.7215    2.0689  -14.0929 H         1 UNK         0.0812 
    123 H123       33.7309    0.3975  -13.5339 H         1 UNK         0.0812 
    124 H124       35.2385    1.2842  -13.6856 H         1 UNK         0.0812 
    125 H125       33.2868   -0.3199  -10.9398 H         1 UNK         0.3205 
    126 H126       35.6527   -1.5809  -10.1004 H         1 UNK         0.0754 
    127 H127       32.7840   -1.9436   -9.0689 H         1 UNK         0.0769 
    128 H128       34.0956   -3.0941   -8.8450 H         1 UNK         0.0769 
    129 H129       33.4952   -2.7602  -10.4608 H         1 UNK         0.0769 
    130 H130       33.7947    0.8650   -8.4037 H         1 UNK         0.2981 
    131 H131       35.0245    0.4717   -5.8167 H         1 UNK         0.0541 
    132 H132       36.4189    1.7886   -8.7247 H         1 UNK         0.3459 
    133 H133       37.6559    2.7059   -7.9005 H         1 UNK         0.3459 
    134 H134       33.9538    2.6534   -5.2255 H         1 UNK         0.0612 
    135 H135       33.4905    2.8856   -6.8890 H         1 UNK         0.0612 
    136 H136       33.2085   -0.0639   -4.1036 H         1 UNK         0.0624 
    137 H137       32.7053    1.5066   -3.5204 H         1 UNK         0.0624 
@<TRIPOS>BOND
     1    1    2 1    
     2    1   72 1    
     3    1   73 1    
     4    1   74 1    
     5    2    3 2    
     6    2    4 am   BACKBONE|DICT|INTERRES
     7    4    5 1    
     8    4   75 1    
     9    5    6 1    
    10    5   35 1    
    11    5   76 1    
    12    6    7 1    
    13    6   77 1    
    14    6   78 1    
    15    7    8 1    
    16    8    9 1    
    17    8   79 1    
    18    8   80 1    
    19    9   10 ar   
    20    9   14 ar   
    21   10   11 ar   
    22   10   81 1    
    23   11   12 ar   
    24   11   71 1    
    25   12   13 ar   
    26   12   82 1    
    27   13   14 ar   
    28   13   15 1    
    29   14   83 1    
    30   15   16 1    
    31   15   84 1    
    32   15   85 1    
    33   16   17 1    
    34   17   18 1    
    35   17   86 1    
    36   17   87 1    
    37   18   19 1    
    38   18   37 1    
    39   18   88 1    
    40   19   20 am   BACKBONE|DICT|INTERRES
    41   19   89 1    
    42   20   21 2    
    43   20   22 1    
    44   22   23 1    
    45   22   24 1    
    46   22   90 1    
    47   23   91 1    
    48   23   92 1    
    49   23   93 1    
    50   24   25 am   BACKBONE|DICT|INTERRES
    51   24   94 1    
    52   25   26 2    
    53   25   27 1    
    54   27   28 1    
    55   27   29 1    
    56   27   95 1    
    57   28   96 1    
    58   28   97 1    
    59   28   98 1    
    60   29   30 am   BACKBONE|DICT|INTERRES
    61   29   99 1    
    62   30   31 2    
    63   30   32 1    
    64   32   33 1    
    65   32   34 1    
    66   32  100 1    
    67   33  101 1    
    68   33  102 1    
    69   33  103 1    
    70   34   35 am   BACKBONE|DICT|INTERRES
    71   34  104 1    
    72   35   36 2    
    73   37   38 2    
    74   37   39 am   BACKBONE|DICT|INTERRES
    75   39   40 1    
    76   39  105 1    
    77   40   41 1    
    78   40   42 1    
    79   40  106 1    
    80   41  107 1    
    81   41  108 1    
    82   41  109 1    
    83   42   43 2    
    84   42   44 am   BACKBONE|DICT|INTERRES
    85   44   45 1    
    86   44  110 1    
    87   45   46 1    
    88   45   47 1    
    89   45  111 1    
    90   46  112 1    
    91   46  113 1    
    92   46  114 1    
    93   47   48 2    
    94   47   49 am   BACKBONE|DICT|INTERRES
    95   49   50 1    
    96   49  115 1    
    97   50   51 1    
    98   50   52 1    
    99   50  116 1    
   100   51  117 1    
   101   51  118 1    
   102   51  119 1    
   103   52   53 2    
   104   52   54 am   BACKBONE|DICT|INTERRES
   105   54   55 1    
   106   54  120 1    
   107   55   56 1    
   108   55   57 1    
   109   55  121 1    
   110   56  122 1    
   111   56  123 1    
   112   56  124 1    
   113   57   58 2    
   114   57   59 am   BACKBONE|DICT|INTERRES
   115   59   60 1    
   116   59  125 1    
   117   60   61 1    
   118   60   62 1    
   119   60  126 1    
   120   61  127 1    
   121   61  128 1    
   122   61  129 1    
   123   62   63 2    
   124   62   64 am   BACKBONE|DICT|INTERRES
   125   64   65 1    
   126   64  130 1    
   127   65   66 1    
   128   65   69 1    
   129   65  131 1    
   130   66   67 am   BACKBONE|DICT|INTERRES
   131   66   68 2    
   132   67  132 1    
   133   67  133 1    
   134   69   70 1    
   135   69  134 1    
   136   69  135 1    
   137   70   71 1    
   138   71  136 1    
   139   71  137 1    
@<TRIPOS>SUBSTRUCTURE
     1 UNK         1 GROUP             0       ****    0 ROOT    
