@<TRIPOS>MOLECULE
3R137
137   139    1
SMALL
USER_CHARGES


@<TRIPOS>ATOM
      1 CA         25.4037   -7.0123    0.8976 C.3       0 UNK        -0.2020 
      2 C          26.0152   -5.8648    0.1081 C.2       0 UNK         0.4855 
      3 O          25.7411   -5.7347   -1.0855 O.2       0 UNK        -0.5197 
      4 N          26.8279   -5.0292    0.7714 N.am      1 UNK        -0.4892 
      5 CA         27.5643   -3.8611    0.2524 C.3       1 UNK         0.0835 
      6 C6         28.5186   -4.1763   -0.9296 C.3       12 UNK        -0.0855 
      7 S7         29.7251   -5.4925   -0.5373 S.3       12 UNK        -0.2931 
      8 C8         31.3184   -4.6398   -0.8135 C.3       12 UNK         0.0378 
      9 C9         31.5606   -4.1276   -2.2364 C.ar      12 UNK        -0.0802 
     10 C10        32.5498   -3.1587   -2.4348 C.ar      12 UNK        -0.0944 
     11 C11        32.8048   -2.6441   -3.7091 C.ar      12 UNK        -0.0787 
     12 C12        32.0675   -3.1122   -4.7996 C.ar      12 UNK        -0.0862 
     13 C13        31.0571   -4.0594   -4.6171 C.ar      12 UNK        -0.0733 
     14 C14        30.8277   -4.5824   -3.3421 C.ar      12 UNK        -0.0832 
     15 C15        30.1816   -4.4901   -5.7860 C.3       12 UNK         0.0240 
     16 S16        28.5215   -3.7377   -5.6831 S.3       12 UNK        -0.2522 
     17 C17        28.9114   -1.9615   -5.8272 C.3       12 UNK        -0.0967 
     18 CA         28.0022   -1.2381   -6.8453 C.3       5 UNK         0.0660 
     19 N          26.6024   -1.1762   -6.4121 N.am      5 UNK        -0.4015 
     20 C          25.5894   -0.8000   -7.2079 C.2       4 UNK         0.4946 
     21 O          25.7265   -0.5129   -8.3961 O.2       4 UNK        -0.5353 
     22 CA         24.1965   -0.6644   -6.5671 C.3       4 UNK         0.0277 
     23 CB         23.4672   -2.0171   -6.5733 C.3       4 UNK        -0.1981 
     24 N          24.2282   -0.1327   -5.2025 N.am      4 UNK        -0.4209 
     25 C          24.7876    1.0282   -4.8306 C.2       3 UNK         0.4942 
     26 O          25.2841    1.8247   -5.6265 O.2       3 UNK        -0.5208 
     27 CA         24.8412    1.3532   -3.3252 C.3       3 UNK         0.0250 
     28 CB         23.9215    2.5420   -3.0025 C.3       3 UNK        -0.1990 
     29 N          24.5084    0.2328   -2.4358 N.am      3 UNK        -0.4232 
     30 C          25.2020   -0.9087   -2.3188 C.2       2 UNK         0.4993 
     31 O          26.2019   -1.1778   -2.9910 O.2       2 UNK        -0.5286 
     32 CA         24.6148   -1.9423   -1.3423 C.3       2 UNK         0.0209 
     33 CB         23.4522   -2.7014   -2.0052 C.3       2 UNK        -0.1931 
     34 N          25.6029   -2.9185   -0.8864 N.am      2 UNK        -0.4546 
     35 C          26.6435   -2.6688   -0.0841 C.2       1 UNK         0.5154 
     36 O          26.8735   -1.5641    0.4112 O.2       1 UNK        -0.5181 
     37 C          28.5669    0.1592   -7.1660 C.2       5 UNK         0.5014 
     38 O          29.2942    0.2997   -8.1489 O.2       5 UNK        -0.5248 
     39 N          28.2201    1.1712   -6.3582 N.am      6 UNK        -0.4434 
     40 CA         28.6119    2.5630   -6.5901 C.3       6 UNK         0.0363 
     41 CB         28.3518    3.4057   -5.3318 C.3       6 UNK        -0.1936 
     42 C          27.9075    3.1559   -7.8206 C.2       6 UNK         0.5081 
     43 O          28.5597    3.8179   -8.6267 O.2       6 UNK        -0.5248 
     44 N          26.6097    2.8576   -7.9792 N.am      7 UNK        -0.4718 
     45 CA         25.8013    3.2289   -9.1460 C.3       7 UNK         0.0273 
     46 CB         24.3324    2.8560   -8.8929 C.3       7 UNK        -0.1935 
     47 C          26.3077    2.5994  -10.4573 C.2       7 UNK         0.5018 
     48 O          26.3091    3.2704  -11.4896 O.2       7 UNK        -0.5186 
     49 N          26.7657    1.3417  -10.3851 N.am      8 UNK        -0.4240 
     50 CA         27.4087    0.6129  -11.4828 C.3       8 UNK         0.0235 
     51 CB         27.3502   -0.8938  -11.1772 C.3       8 UNK        -0.2000 
     52 C          28.8648    1.0423  -11.7547 C.2       8 UNK         0.4941 
     53 O          29.4426    0.5708  -12.7350 O.2       8 UNK        -0.5273 
     54 N          29.4409    1.8908  -10.8879 N.am      9 UNK        -0.4262 
     55 CA         30.8348    2.3539  -10.8812 C.3       9 UNK         0.0264 
     56 CB         31.1572    3.1855  -12.1413 C.3       9 UNK        -0.1955 
     57 C          31.8569    1.2269  -10.6227 C.2       9 UNK         0.5031 
     58 O          33.0074    1.3306  -11.0526 O.2       9 UNK        -0.5390 
     59 N          31.4324    0.1863   -9.8937 N.am      10 UNK        -0.4204 
     60 CA         32.2792   -0.8940   -9.3844 C.3       10 UNK         0.0237 
     61 CB         31.4406   -2.1796   -9.2773 C.3       10 UNK        -0.1985 
     62 C          32.9004   -0.5398   -8.0208 C.2       10 UNK         0.4970 
     63 O          33.8315   -1.2229   -7.5950 O.2       10 UNK        -0.4914 
     64 N          32.3824    0.5060   -7.3663 N.am      11 UNK        -0.4285 
     65 CA         32.8653    1.0650   -6.1013 C.3       11 UNK         0.1007 
     66 C          32.8002    2.6159   -6.1189 C.2       11 UNK         0.5703 
     67 N          33.2767    3.2684   -5.0684 N.am      11 UNK        -0.7361 
     68 O          32.3220    3.2338   -7.0693 O.2       11 UNK        -0.4986 
     69 C69        32.1292    0.4350   -4.8839 C.3       12 UNK        -0.0947 
     70 S70        33.2547    0.0918   -3.4904 S.3       12 UNK        -0.2240 
     71 C71        33.8700   -1.5743   -3.9030 C.3       12 UNK         0.0194 
     72 H72        25.6938   -7.9656    0.4566 H         1 UNK         0.0906 
     73 H73        24.3164   -6.9441    0.8771 H         1 UNK         0.0906 
     74 H74        25.7244   -7.0097    1.9392 H         1 UNK         0.0906 
     75 H75        26.9764   -5.1992    1.7569 H         1 UNK         0.3140 
     76 H76        28.1895   -3.5266    1.0824 H         1 UNK         0.1085 
     77 H77        29.0563   -3.2720   -1.2220 H         1 UNK         0.0836 
     78 H78        27.9579   -4.4820   -1.8146 H         1 UNK         0.0836 
     79 H79        31.3842   -3.8081   -0.1100 H         1 UNK         0.0731 
     80 H80        32.1243   -5.3274   -0.5541 H         1 UNK         0.0731 
     81 H81        33.1196   -2.7924   -1.5914 H         1 UNK         0.1312 
     82 H82        32.2606   -2.7132   -5.7861 H         1 UNK         0.1406 
     83 H83        30.0507   -5.3235   -3.2205 H         1 UNK         0.1631 
     84 H84        30.0804   -5.5763   -5.7848 H         1 UNK         0.0717 
     85 H85        30.6426   -4.2256   -6.7391 H         1 UNK         0.0717 
     86 H86        28.8394   -1.5053   -4.8375 H         1 UNK         0.0934 
     87 H87        29.9533   -1.8624   -6.1327 H         1 UNK         0.0934 
     88 H88        28.0289   -1.8048   -7.7789 H         1 UNK         0.0739 
     89 H89        26.4148   -1.3963   -5.4423 H         1 UNK         0.3093 
     90 H90        23.6225    0.0370   -7.1754 H         1 UNK         0.0818 
     91 H91        23.4148   -2.4262   -7.5834 H         1 UNK         0.0819 
     92 H92        23.9742   -2.7542   -5.9491 H         1 UNK         0.0819 
     93 H93        22.4429   -1.9184   -6.2133 H         1 UNK         0.0819 
     94 H94        23.8421   -0.7194   -4.4786 H         1 UNK         0.3041 
     95 H95        25.8693    1.6494   -3.1063 H         1 UNK         0.0784 
     96 H96        24.1680    3.4071   -3.6203 H         1 UNK         0.0793 
     97 H97        22.8728    2.3021   -3.1829 H         1 UNK         0.0793 
     98 H98        24.0226    2.8528   -1.9624 H         1 UNK         0.0793 
     99 H99        23.6850    0.3555   -1.8630 H         1 UNK         0.3024 
    100 H100       24.2405   -1.4119   -0.4636 H         1 UNK         0.1171 
    101 H101       23.7820   -3.2498   -2.8889 H         1 UNK         0.0786 
    102 H102       23.0049   -3.4188   -1.3167 H         1 UNK         0.0786 
    103 H103       22.6589   -2.0214   -2.3182 H         1 UNK         0.0786 
    104 H104       25.5076   -3.8728   -1.2253 H         1 UNK         0.2977 
    105 H105       27.5666    1.0003   -5.6075 H         1 UNK         0.3127 
    106 H106       29.6854    2.5812   -6.7865 H         1 UNK         0.0770 
    107 H107       28.6872    4.4330   -5.4801 H         1 UNK         0.0814 
    108 H108       27.2931    3.4450   -5.0754 H         1 UNK         0.0814 
    109 H109       28.8927    3.0109   -4.4717 H         1 UNK         0.0814 
    110 H110       26.1387    2.3467   -7.2353 H         1 UNK         0.2983 
    111 H111       25.8646    4.3136   -9.2568 H         1 UNK         0.0947 
    112 H112       24.2026    1.7788   -8.7894 H         1 UNK         0.0806 
    113 H113       23.6997    3.1825   -9.7192 H         1 UNK         0.0806 
    114 H114       23.9529    3.3275   -7.9860 H         1 UNK         0.0806 
    115 H115       26.6409    0.8302   -9.5154 H         1 UNK         0.3000 
    116 H116       26.8417    0.7986  -12.3974 H         1 UNK         0.0850 
    117 H117       27.7784   -1.4791  -11.9920 H         1 UNK         0.0810 
    118 H118       26.3225   -1.2318  -11.0431 H         1 UNK         0.0810 
    119 H119       27.9047   -1.1409  -10.2711 H         1 UNK         0.0810 
    120 H120       28.8784    2.2285  -10.1155 H         1 UNK         0.3040 
    121 H121       30.9161    3.0232  -10.0232 H         1 UNK         0.0766 
    122 H122       32.1338    3.6633  -12.0545 H         1 UNK         0.0812 
    123 H123       30.4233    3.9771  -12.2920 H         1 UNK         0.0812 
    124 H124       31.1780    2.5696  -13.0407 H         1 UNK         0.0812 
    125 H125       30.4856    0.2174   -9.5161 H         1 UNK         0.3205 
    126 H126       33.0972   -1.0753  -10.0847 H         1 UNK         0.0754 
    127 H127       32.0503   -3.0166   -8.9342 H         1 UNK         0.0769 
    128 H128       31.0216   -2.4592  -10.2441 H         1 UNK         0.0769 
    129 H129       30.6142   -2.0694   -8.5752 H         1 UNK         0.0769 
    130 H130       31.6366    1.0305   -7.8021 H         1 UNK         0.2981 
    131 H131       33.9302    0.8318   -6.0424 H         1 UNK         0.0541 
    132 H132       33.2451    4.2757   -5.0589 H         1 UNK         0.3459 
    133 H133       33.6563    2.7674   -4.2797 H         1 UNK         0.3459 
    134 H134       31.6372   -0.4932   -5.1640 H         1 UNK         0.0612 
    135 H135       31.3202    1.0768   -4.5294 H         1 UNK         0.0612 
    136 H136       34.2433   -1.5815   -4.9277 H         1 UNK         0.0624 
    137 H137       34.7277   -1.7971   -3.2668 H         1 UNK         0.0624 
@<TRIPOS>BOND
     1    1    2 1    
     2    1   72 1    
     3    1   73 1    
     4    1   74 1    
     5    2    3 2    
     6    2    4 am   BACKBONE|DICT|INTERRES
     7    4    5 1    
     8    4   75 1    
     9    5    6 1    
    10    5   35 1    
    11    5   76 1    
    12    6    7 1    
    13    6   77 1    
    14    6   78 1    
    15    7    8 1    
    16    8    9 1    
    17    8   79 1    
    18    8   80 1    
    19    9   10 ar   
    20    9   14 ar   
    21   10   11 ar   
    22   10   81 1    
    23   11   12 ar   
    24   11   71 1    
    25   12   13 ar   
    26   12   82 1    
    27   13   14 ar   
    28   13   15 1    
    29   14   83 1    
    30   15   16 1    
    31   15   84 1    
    32   15   85 1    
    33   16   17 1    
    34   17   18 1    
    35   17   86 1    
    36   17   87 1    
    37   18   19 1    
    38   18   37 1    
    39   18   88 1    
    40   19   20 am   BACKBONE|DICT|INTERRES
    41   19   89 1    
    42   20   21 2    
    43   20   22 1    
    44   22   23 1    
    45   22   24 1    
    46   22   90 1    
    47   23   91 1    
    48   23   92 1    
    49   23   93 1    
    50   24   25 am   BACKBONE|DICT|INTERRES
    51   24   94 1    
    52   25   26 2    
    53   25   27 1    
    54   27   28 1    
    55   27   29 1    
    56   27   95 1    
    57   28   96 1    
    58   28   97 1    
    59   28   98 1    
    60   29   30 am   BACKBONE|DICT|INTERRES
    61   29   99 1    
    62   30   31 2    
    63   30   32 1    
    64   32   33 1    
    65   32   34 1    
    66   32  100 1    
    67   33  101 1    
    68   33  102 1    
    69   33  103 1    
    70   34   35 am   BACKBONE|DICT|INTERRES
    71   34  104 1    
    72   35   36 2    
    73   37   38 2    
    74   37   39 am   BACKBONE|DICT|INTERRES
    75   39   40 1    
    76   39  105 1    
    77   40   41 1    
    78   40   42 1    
    79   40  106 1    
    80   41  107 1    
    81   41  108 1    
    82   41  109 1    
    83   42   43 2    
    84   42   44 am   BACKBONE|DICT|INTERRES
    85   44   45 1    
    86   44  110 1    
    87   45   46 1    
    88   45   47 1    
    89   45  111 1    
    90   46  112 1    
    91   46  113 1    
    92   46  114 1    
    93   47   48 2    
    94   47   49 am   BACKBONE|DICT|INTERRES
    95   49   50 1    
    96   49  115 1    
    97   50   51 1    
    98   50   52 1    
    99   50  116 1    
   100   51  117 1    
   101   51  118 1    
   102   51  119 1    
   103   52   53 2    
   104   52   54 am   BACKBONE|DICT|INTERRES
   105   54   55 1    
   106   54  120 1    
   107   55   56 1    
   108   55   57 1    
   109   55  121 1    
   110   56  122 1    
   111   56  123 1    
   112   56  124 1    
   113   57   58 2    
   114   57   59 am   BACKBONE|DICT|INTERRES
   115   59   60 1    
   116   59  125 1    
   117   60   61 1    
   118   60   62 1    
   119   60  126 1    
   120   61  127 1    
   121   61  128 1    
   122   61  129 1    
   123   62   63 2    
   124   62   64 am   BACKBONE|DICT|INTERRES
   125   64   65 1    
   126   64  130 1    
   127   65   66 1    
   128   65   69 1    
   129   65  131 1    
   130   66   67 am   BACKBONE|DICT|INTERRES
   131   66   68 2    
   132   67  132 1    
   133   67  133 1    
   134   69   70 1    
   135   69  134 1    
   136   69  135 1    
   137   70   71 1    
   138   71  136 1    
   139   71  137 1    
@<TRIPOS>SUBSTRUCTURE
     1 UNK         1 GROUP             0       ****    0 ROOT    
