@<TRIPOS>MOLECULE
3R137
137   139    1
SMALL
USER_CHARGES


@<TRIPOS>ATOM
      1 CA         26.6430   -6.3446   -2.4807 C.3       0 UNK        -0.2020 
      2 C          26.8425   -5.6264   -1.1542 C.2       0 UNK         0.4855 
      3 O          26.8040   -6.2664   -0.1032 O.2       0 UNK        -0.5197 
      4 N          27.0462   -4.3053   -1.1925 N.am      1 UNK        -0.4892 
      5 CA         27.1339   -3.4474   -0.0096 C.3       1 UNK         0.0835 
      6 C6         28.4974   -3.5128    0.7397 C.3       12 UNK        -0.0855 
      7 S7         29.9598   -2.9415   -0.1992 S.3       12 UNK        -0.2931 
      8 C8         30.6400   -4.4858   -0.8806 C.3       12 UNK         0.0378 
      9 C9         30.9649   -4.3010   -2.3539 C.ar      12 UNK        -0.0802 
     10 C10        32.1498   -3.6681   -2.7436 C.ar      12 UNK        -0.0944 
     11 C11        32.4163   -3.4379   -4.0968 C.ar      12 UNK        -0.0787 
     12 C12        31.4980   -3.8600   -5.0615 C.ar      12 UNK        -0.0862 
     13 C13        30.3107   -4.4919   -4.6842 C.ar      12 UNK        -0.0733 
     14 C14        30.0580   -4.7224   -3.3297 C.ar      12 UNK        -0.0832 
     15 C15        29.2858   -4.8906   -5.7380 C.3       12 UNK         0.0240 
     16 S16        27.7220   -3.9721   -5.5498 S.3       12 UNK        -0.2522 
     17 C17        28.2732   -2.2356   -5.6745 C.3       12 UNK        -0.0967 
     18 CA         27.5139   -1.4414   -6.7619 C.3       5 UNK         0.0660 
     19 N          26.0618   -1.4532   -6.5526 N.am      5 UNK        -0.4015 
     20 C          25.1642   -1.0827   -7.4772 C.2       4 UNK         0.4946 
     21 O          25.4691   -0.6991   -8.6054 O.2       4 UNK        -0.5353 
     22 CA         23.6798   -1.0897   -7.0701 C.3       4 UNK         0.0277 
     23 CB         23.0600   -2.4717   -7.3292 C.3       4 UNK        -0.1981 
     24 N          23.4486   -0.7027   -5.6762 N.am      4 UNK        -0.4209 
     25 C          23.8226    0.4612   -5.1271 C.2       3 UNK         0.4942 
     26 O          24.3820    1.3616   -5.7537 O.2       3 UNK        -0.5208 
     27 CA         23.6040    0.6347   -3.6129 C.3       3 UNK         0.0250 
     28 CB         22.6154   -0.3825   -2.9976 C.3       3 UNK        -0.1990 
     29 N          24.8784    0.6132   -2.8823 N.am      3 UNK        -0.4232 
     30 C          25.8059   -0.3567   -2.9097 C.2       2 UNK         0.4993 
     31 O          25.7155   -1.3734   -3.6030 O.2       2 UNK        -0.5286 
     32 CA         27.0690   -0.1692   -2.0481 C.3       2 UNK         0.0209 
     33 CB         27.0226    1.0350   -1.0785 C.3       2 UNK        -0.1931 
     34 N          27.3976   -1.4140   -1.3441 N.am      2 UNK        -0.4546 
     35 C          26.6716   -2.0344   -0.4011 C.2       1 UNK         0.5154 
     36 O          25.6452   -1.5728    0.1004 O.2       1 UNK        -0.5181 
     37 C          28.0664   -0.0048   -6.8497 C.2       5 UNK         0.5014 
     38 O          29.0149    0.2349   -7.5998 O.2       5 UNK        -0.5248 
     39 N          27.4604    0.9248   -6.0959 N.am      6 UNK        -0.4434 
     40 CA         27.7910    2.3490   -6.1248 C.3       6 UNK         0.0363 
     41 CB         27.2879    3.0341   -4.8442 C.3       6 UNK        -0.1936 
     42 C          27.2258    3.0262   -7.3815 C.2       6 UNK         0.5081 
     43 O          27.9289    3.8251   -7.9976 O.2       6 UNK        -0.5248 
     44 N          25.9965    2.6579   -7.7726 N.am      7 UNK        -0.4718 
     45 CA         25.3449    3.0983   -9.0111 C.3       7 UNK         0.0273 
     46 CB         23.8856    2.6176   -9.0259 C.3       7 UNK        -0.1935 
     47 C          26.0879    2.6311  -10.2758 C.2       7 UNK         0.5018 
     48 O          26.2312    3.4124  -11.2166 O.2       7 UNK        -0.5186 
     49 N          26.5831    1.3851  -10.2580 N.am      8 UNK        -0.4240 
     50 CA         27.4535    0.8136  -11.2906 C.3       8 UNK         0.0235 
     51 CB         27.4801   -0.7158  -11.1316 C.3       8 UNK        -0.2000 
     52 C          28.8908    1.3694  -11.2674 C.2       8 UNK         0.4941 
     53 O          29.6189    1.1623  -12.2389 O.2       8 UNK        -0.5273 
     54 N          29.2751    2.0384  -10.1686 N.am      9 UNK        -0.4262 
     55 CA         30.5998    2.5898   -9.8661 C.3       9 UNK         0.0264 
     56 CB         30.9352    3.7643  -10.8096 C.3       9 UNK        -0.1955 
     57 C          31.6923    1.5043   -9.8309 C.2       9 UNK         0.5031 
     58 O          32.7607    1.6824  -10.4196 O.2       9 UNK        -0.5390 
     59 N          31.3994    0.3918   -9.1414 N.am      10 UNK        -0.4204 
     60 CA         32.2828   -0.7730   -9.0243 C.3       10 UNK         0.0237 
     61 CB         31.4961   -1.9424   -8.4127 C.3       10 UNK        -0.1985 
     62 C          33.5617   -0.4986   -8.2119 C.2       10 UNK         0.4970 
     63 O          34.6066   -1.0726   -8.5210 O.2       10 UNK        -0.4914 
     64 N          33.4550    0.3703   -7.2016 N.am      11 UNK        -0.4285 
     65 CA         34.5479    0.7872   -6.3095 C.3       11 UNK         0.1007 
     66 C          34.3364    2.2062   -5.7048 C.2       11 UNK         0.5703 
     67 N          33.4514    3.0333   -6.2518 N.am      11 UNK        -0.7361 
     68 O          34.9981    2.5814   -4.7397 O.2       11 UNK        -0.4986 
     69 C69        34.9261   -0.3007   -5.2611 C.3       12 UNK        -0.0947 
     70 S70        33.5036   -0.9138   -4.2933 S.3       12 UNK        -0.2240 
     71 C71        33.6803   -2.7099   -4.5217 C.3       12 UNK         0.0194 
     72 H72        26.5893   -5.6493   -3.3176 H         1 UNK         0.0906 
     73 H73        27.4633   -7.0385   -2.6622 H         1 UNK         0.0906 
     74 H74        25.7149   -6.9152   -2.4608 H         1 UNK         0.0906 
     75 H75        27.0152   -3.8147   -2.0772 H         1 UNK         0.3140 
     76 H76        26.3798   -3.8045    0.6965 H         1 UNK         0.1085 
     77 H77        28.4370   -2.9082    1.6464 H         1 UNK         0.0836 
     78 H78        28.6757   -4.5296    1.0926 H         1 UNK         0.0836 
     79 H79        29.9345   -5.3075   -0.7503 H         1 UNK         0.0731 
     80 H80        31.5392   -4.7607   -0.3272 H         1 UNK         0.0731 
     81 H81        32.8487   -3.3253   -1.9926 H         1 UNK         0.1312 
     82 H82        31.7002   -3.6786   -6.1068 H         1 UNK         0.1406 
     83 H83        29.1369   -5.2014   -3.0368 H         1 UNK         0.1631 
     84 H84        29.0822   -5.9590   -5.6557 H         1 UNK         0.0717 
     85 H85        29.6737   -4.7262   -6.7446 H         1 UNK         0.0717 
     86 H86        28.1506   -1.7746   -4.6934 H         1 UNK         0.0934 
     87 H87        29.3433   -2.2093   -5.8820 H         1 UNK         0.0934 
     88 H88        27.7125   -1.9187   -7.7241 H         1 UNK         0.0739 
     89 H89        25.7457   -1.7192   -5.6246 H         1 UNK         0.3093 
     90 H90        23.1640   -0.3620   -7.6992 H         1 UNK         0.0818 
     91 H91        21.9870   -2.4690   -7.1367 H         1 UNK         0.0819 
     92 H92        23.1996   -2.7721   -8.3688 H         1 UNK         0.0819 
     93 H93        23.5131   -3.2423   -6.7040 H         1 UNK         0.0819 
     94 H94        23.0315   -1.3971   -5.0735 H         1 UNK         0.3041 
     95 H95        23.1803    1.6313   -3.4801 H         1 UNK         0.0784 
     96 H96        21.6548   -0.3641   -3.5144 H         1 UNK         0.0793 
     97 H97        22.9945   -1.4048   -3.0291 H         1 UNK         0.0793 
     98 H98        22.4171   -0.1444   -1.9524 H         1 UNK         0.0793 
     99 H99        25.0576    1.4185   -2.2993 H         1 UNK         0.3024 
    100 H100       27.8850    0.0087   -2.7505 H         1 UNK         0.1171 
    101 H101       27.9351    1.0905   -0.4846 H         1 UNK         0.0786 
    102 H102       26.9419    1.9789   -1.6186 H         1 UNK         0.0786 
    103 H103       26.1837    0.9771   -0.3841 H         1 UNK         0.0786 
    104 H104       28.2413   -1.8814   -1.6507 H         1 UNK         0.2977 
    105 H105       26.6351    0.6621   -5.5758 H         1 UNK         0.3127 
    106 H106       28.8784    2.4506   -6.1530 H         1 UNK         0.0770 
    107 H107       26.2048    2.9693   -4.7408 H         1 UNK         0.0814 
    108 H108       27.5497    4.0930   -4.8445 H         1 UNK         0.0814 
    109 H109       27.7392    2.5916   -3.9567 H         1 UNK         0.0814 
    110 H110       25.4586    2.0448   -7.1645 H         1 UNK         0.2983 
    111 H111       25.3452    4.1905   -9.0128 H         1 UNK         0.0947 
    112 H112       23.3610    2.9933   -9.9054 H         1 UNK         0.0806 
    113 H113       23.3421    2.9682   -8.1482 H         1 UNK         0.0806 
    114 H114       23.8198    1.5299   -9.0481 H         1 UNK         0.0806 
    115 H115       26.3327    0.7709   -9.4862 H         1 UNK         0.3000 
    116 H116       27.0272    1.0508  -12.2676 H         1 UNK         0.0850 
    117 H117       28.0885   -1.1816  -11.9080 H         1 UNK         0.0810 
    118 H118       26.4788   -1.1404  -11.2071 H         1 UNK         0.0810 
    119 H119       27.8975   -1.0115  -10.1681 H         1 UNK         0.0810 
    120 H120       28.5894    2.1552   -9.4340 H         1 UNK         0.3040 
    121 H121       30.5365    2.9909   -8.8535 H         1 UNK         0.0766 
    122 H122       31.0550    3.4348  -11.8421 H         1 UNK         0.0812 
    123 H123       31.8661    4.2494  -10.5135 H         1 UNK         0.0812 
    124 H124       30.1533    4.5235  -10.7878 H         1 UNK         0.0812 
    125 H125       30.4976    0.3341   -8.6672 H         1 UNK         0.3205 
    126 H126       32.5893   -1.0591  -10.0327 H         1 UNK         0.0754 
    127 H127       32.1111   -2.8419   -8.3639 H         1 UNK         0.0769 
    128 H128       30.6142   -2.1834   -9.0069 H         1 UNK         0.0769 
    129 H129       31.1646   -1.7113   -7.4002 H         1 UNK         0.0769 
    130 H130       32.5498    0.7630   -6.9911 H         1 UNK         0.2981 
    131 H131       35.4274    0.9233   -6.9414 H         1 UNK         0.0541 
    132 H132       32.9645    2.7937   -7.0980 H         1 UNK         0.3459 
    133 H133       33.3348    3.9500   -5.8492 H         1 UNK         0.3459 
    134 H134       35.6864    0.0638   -4.5686 H         1 UNK         0.0612 
    135 H135       35.3954   -1.1386   -5.7777 H         1 UNK         0.0612 
    136 H136       33.9004   -2.9252   -5.5688 H         1 UNK         0.0624 
    137 H137       34.5328   -3.0675   -3.9425 H         1 UNK         0.0624 
@<TRIPOS>BOND
     1    1    2 1    
     2    1   72 1    
     3    1   73 1    
     4    1   74 1    
     5    2    3 2    
     6    2    4 am   BACKBONE|DICT|INTERRES
     7    4    5 1    
     8    4   75 1    
     9    5    6 1    
    10    5   35 1    
    11    5   76 1    
    12    6    7 1    
    13    6   77 1    
    14    6   78 1    
    15    7    8 1    
    16    8    9 1    
    17    8   79 1    
    18    8   80 1    
    19    9   10 ar   
    20    9   14 ar   
    21   10   11 ar   
    22   10   81 1    
    23   11   12 ar   
    24   11   71 1    
    25   12   13 ar   
    26   12   82 1    
    27   13   14 ar   
    28   13   15 1    
    29   14   83 1    
    30   15   16 1    
    31   15   84 1    
    32   15   85 1    
    33   16   17 1    
    34   17   18 1    
    35   17   86 1    
    36   17   87 1    
    37   18   19 1    
    38   18   37 1    
    39   18   88 1    
    40   19   20 am   BACKBONE|DICT|INTERRES
    41   19   89 1    
    42   20   21 2    
    43   20   22 1    
    44   22   23 1    
    45   22   24 1    
    46   22   90 1    
    47   23   91 1    
    48   23   92 1    
    49   23   93 1    
    50   24   25 am   BACKBONE|DICT|INTERRES
    51   24   94 1    
    52   25   26 2    
    53   25   27 1    
    54   27   28 1    
    55   27   29 1    
    56   27   95 1    
    57   28   96 1    
    58   28   97 1    
    59   28   98 1    
    60   29   30 am   BACKBONE|DICT|INTERRES
    61   29   99 1    
    62   30   31 2    
    63   30   32 1    
    64   32   33 1    
    65   32   34 1    
    66   32  100 1    
    67   33  101 1    
    68   33  102 1    
    69   33  103 1    
    70   34   35 am   BACKBONE|DICT|INTERRES
    71   34  104 1    
    72   35   36 2    
    73   37   38 2    
    74   37   39 am   BACKBONE|DICT|INTERRES
    75   39   40 1    
    76   39  105 1    
    77   40   41 1    
    78   40   42 1    
    79   40  106 1    
    80   41  107 1    
    81   41  108 1    
    82   41  109 1    
    83   42   43 2    
    84   42   44 am   BACKBONE|DICT|INTERRES
    85   44   45 1    
    86   44  110 1    
    87   45   46 1    
    88   45   47 1    
    89   45  111 1    
    90   46  112 1    
    91   46  113 1    
    92   46  114 1    
    93   47   48 2    
    94   47   49 am   BACKBONE|DICT|INTERRES
    95   49   50 1    
    96   49  115 1    
    97   50   51 1    
    98   50   52 1    
    99   50  116 1    
   100   51  117 1    
   101   51  118 1    
   102   51  119 1    
   103   52   53 2    
   104   52   54 am   BACKBONE|DICT|INTERRES
   105   54   55 1    
   106   54  120 1    
   107   55   56 1    
   108   55   57 1    
   109   55  121 1    
   110   56  122 1    
   111   56  123 1    
   112   56  124 1    
   113   57   58 2    
   114   57   59 am   BACKBONE|DICT|INTERRES
   115   59   60 1    
   116   59  125 1    
   117   60   61 1    
   118   60   62 1    
   119   60  126 1    
   120   61  127 1    
   121   61  128 1    
   122   61  129 1    
   123   62   63 2    
   124   62   64 am   BACKBONE|DICT|INTERRES
   125   64   65 1    
   126   64  130 1    
   127   65   66 1    
   128   65   69 1    
   129   65  131 1    
   130   66   67 am   BACKBONE|DICT|INTERRES
   131   66   68 2    
   132   67  132 1    
   133   67  133 1    
   134   69   70 1    
   135   69  134 1    
   136   69  135 1    
   137   70   71 1    
   138   71  136 1    
   139   71  137 1    
@<TRIPOS>SUBSTRUCTURE
     1 UNK         1 GROUP             0       ****    0 ROOT    
