@<TRIPOS>MOLECULE
3R137
137   139    1
SMALL
USER_CHARGES


@<TRIPOS>ATOM
      1 CA         25.7795   -6.5159   -4.7898 C.3       0 UNK        -0.2020 
      2 C          26.1763   -5.6492   -3.6049 C.2       0 UNK         0.4855 
      3 O          25.3132   -5.2607   -2.8170 O.2       0 UNK        -0.5197 
      4 N          27.4727   -5.3318   -3.4763 N.am      1 UNK        -0.4892 
      5 CA         28.0296   -4.4718   -2.4250 C.3       1 UNK         0.0835 
      6 C6         29.5750   -4.4104   -2.5016 C.3       12 UNK        -0.0855 
      7 S7         30.3157   -3.9240   -0.9097 S.3       12 UNK        -0.2931 
      8 C8         32.0057   -3.4561   -1.4229 C.3       12 UNK         0.0378 
      9 C9         32.1414   -2.0870   -2.0955 C.ar      12 UNK        -0.0802 
     10 C10        33.2524   -1.8485   -2.9137 C.ar      12 UNK        -0.0944 
     11 C11        33.4663   -0.5900   -3.4858 C.ar      12 UNK        -0.0787 
     12 C12        32.5575    0.4396   -3.2344 C.ar      12 UNK        -0.0862 
     13 C13        31.4434    0.2230   -2.4193 C.ar      12 UNK        -0.0733 
     14 C14        31.2379   -1.0411   -1.8566 C.ar      12 UNK        -0.0832 
     15 C15        30.5042    1.3777   -2.0962 C.3       12 UNK         0.0240 
     16 S16        29.6716    2.0353   -3.5746 S.3       12 UNK        -0.2522 
     17 C17        28.3463    0.8089   -3.8189 C.3       12 UNK        -0.0967 
     18 CA         27.8305    0.7483   -5.2787 C.3       5 UNK         0.0660 
     19 N          27.1815   -0.5406   -5.5513 N.am      5 UNK        -0.4015 
     20 C          26.6679   -0.9561   -6.7192 C.2       4 UNK         0.4946 
     21 O          26.6586   -0.2748   -7.7440 O.2       4 UNK        -0.5353 
     22 CA         25.9700   -2.3256   -6.7182 C.3       4 UNK         0.0277 
     23 CB         26.9801   -3.4739   -6.8636 C.3       4 UNK        -0.1981 
     24 N          25.1810   -2.5130   -5.4992 N.am      4 UNK        -0.4209 
     25 C          23.9517   -2.0114   -5.3128 C.2       3 UNK         0.4942 
     26 O          23.3213   -1.4072   -6.1799 O.2       3 UNK        -0.5208 
     27 CA         23.3196   -2.1970   -3.9225 C.3       3 UNK         0.0250 
     28 CB         22.4855   -3.4871   -3.8758 C.3       3 UNK        -0.1990 
     29 N          24.3108   -2.2093   -2.8430 N.am      3 UNK        -0.4232 
     30 C          24.9758   -1.1211   -2.4240 C.2       2 UNK         0.4993 
     31 O          24.7933    0.0081   -2.8794 O.2       2 UNK        -0.5286 
     32 CA         26.0570   -1.3265   -1.3448 C.3       2 UNK         0.0209 
     33 CB         25.4531   -1.1586    0.0583 C.3       2 UNK        -0.1931 
     34 N          26.7543   -2.6158   -1.4239 N.am      2 UNK        -0.4546 
     35 C          27.4112   -3.0637   -2.5024 C.2       1 UNK         0.5154 
     36 O          27.4986   -2.4329   -3.5565 O.2       1 UNK        -0.5181 
     37 C          26.9590    1.9787   -5.6311 C.2       5 UNK         0.5014 
     38 O          27.5063    3.0534   -5.8758 O.2       5 UNK        -0.5248 
     39 N          25.6323    1.8065   -5.7329 N.am      6 UNK        -0.4434 
     40 CA         24.6949    2.7870   -6.2912 C.3       6 UNK         0.0363 
     41 CB         23.2683    2.2243   -6.1978 C.3       6 UNK        -0.1936 
     42 C          25.0136    3.2111   -7.7431 C.2       6 UNK         0.5081 
     43 O          24.6623    4.3264   -8.1281 O.2       6 UNK        -0.5248 
     44 N          25.6943    2.3456   -8.5110 N.am      7 UNK        -0.4718 
     45 CA         26.2105    2.6360   -9.8532 C.3       7 UNK         0.0273 
     46 CB         26.1669    1.3470  -10.6922 C.3       7 UNK        -0.1935 
     47 C          27.6340    3.2327   -9.8385 C.2       7 UNK         0.5018 
     48 O          28.1981    3.4481  -10.9127 O.2       7 UNK        -0.5186 
     49 N          28.2026    3.4733   -8.6466 N.am      8 UNK        -0.4240 
     50 CA         29.5199    4.0473   -8.3390 C.3       8 UNK         0.0235 
     51 CB         29.6652    5.4761   -8.9000 C.3       8 UNK        -0.2000 
     52 C          30.7144    3.1637   -8.7345 C.2       8 UNK         0.4941 
     53 O          31.5487    2.8634   -7.8810 O.2       8 UNK        -0.5273 
     54 N          30.7918    2.7793  -10.0133 N.am      9 UNK        -0.4262 
     55 CA         31.8971    2.0071  -10.5870 C.3       9 UNK         0.0264 
     56 CB         31.8970    2.1923  -12.1130 C.3       9 UNK        -0.1955 
     57 C          31.8545    0.5115  -10.2313 C.2       9 UNK         0.5031 
     58 O          32.9024   -0.1375  -10.2279 O.2       9 UNK        -0.5390 
     59 N          30.6552   -0.0205   -9.9650 N.am      10 UNK        -0.4204 
     60 CA         30.4163   -1.4339   -9.6794 C.3       10 UNK         0.0237 
     61 CB         28.9797   -1.7959  -10.0966 C.3       10 UNK        -0.1985 
     62 C          30.7108   -1.7675   -8.2069 C.2       10 UNK         0.4970 
     63 O          29.7851   -1.9508   -7.4177 O.2       10 UNK        -0.4914 
     64 N          31.9997   -1.8426   -7.8632 N.am      11 UNK        -0.4285 
     65 CA         32.4845   -2.3691   -6.5790 C.3       11 UNK         0.1007 
     66 C          32.1804   -3.8834   -6.4079 C.2       11 UNK         0.5703 
     67 N          31.9824   -4.3358   -5.1775 N.am      11 UNK        -0.7361 
     68 O          32.1709   -4.6539   -7.3668 O.2       11 UNK        -0.4986 
     69 C69        33.9985   -2.0981   -6.3977 C.3       12 UNK        -0.0947 
     70 S70        34.3385   -0.3309   -6.1183 S.3       12 UNK        -0.2240 
     71 C71        34.7029   -0.3190   -4.3337 C.3       12 UNK         0.0194 
     72 H72        26.6298   -6.7453   -5.4317 H         1 UNK         0.0906 
     73 H73        25.3546   -7.4561   -4.4393 H         1 UNK         0.0906 
     74 H74        25.0272   -6.0062   -5.3912 H         1 UNK         0.0906 
     75 H75        28.1322   -5.6609   -4.1667 H         1 UNK         0.3140 
     76 H76        27.7465   -4.9282   -1.4737 H         1 UNK         0.1085 
     77 H77        29.9065   -3.7340   -3.2924 H         1 UNK         0.0836 
     78 H78        29.9795   -5.3923   -2.7529 H         1 UNK         0.0836 
     79 H79        32.4009   -4.2384   -2.0729 H         1 UNK         0.0731 
     80 H80        32.6374   -3.4534   -0.5336 H         1 UNK         0.0731 
     81 H81        33.9716   -2.6384   -3.0836 H         1 UNK         0.1312 
     82 H82        32.7251    1.4186   -3.6629 H         1 UNK         0.1406 
     83 H83        30.3898   -1.1954   -1.2045 H         1 UNK         0.1631 
     84 H84        31.0844    2.1806   -1.6393 H         1 UNK         0.0717 
     85 H85        29.7550    1.0859   -1.3584 H         1 UNK         0.0717 
     86 H86        28.7557   -0.1609   -3.5332 H         1 UNK         0.0934 
     87 H87        27.5321    1.0155   -3.1225 H         1 UNK         0.0934 
     88 H88        28.6952    0.7800   -5.9454 H         1 UNK         0.0739 
     89 H89        27.1960   -1.2094   -4.7821 H         1 UNK         0.3093 
     90 H90        25.3015   -2.3591   -7.5814 H         1 UNK         0.0818 
     91 H91        27.7100   -3.4830   -6.0533 H         1 UNK         0.0819 
     92 H92        26.4816   -4.4422   -6.8833 H         1 UNK         0.0819 
     93 H93        27.5350   -3.3808   -7.7972 H         1 UNK         0.0819 
     94 H94        25.6551   -2.9369   -4.7128 H         1 UNK         0.3041 
     95 H95        22.6458   -1.3539   -3.7533 H         1 UNK         0.0784 
     96 H96        21.7017   -3.4703   -4.6344 H         1 UNK         0.0793 
     97 H97        23.0947   -4.3724   -4.0593 H         1 UNK         0.0793 
     98 H98        21.9969   -3.6100   -2.9091 H         1 UNK         0.0793 
     99 H99        24.5443   -3.1113   -2.4446 H         1 UNK         0.3024 
    100 H100       26.8057   -0.5452   -1.4859 H         1 UNK         0.1171 
    101 H101       26.2229   -1.1941    0.8295 H         1 UNK         0.0786 
    102 H102       24.9476   -0.1963    0.1531 H         1 UNK         0.0786 
    103 H103       24.7194   -1.9352    0.2784 H         1 UNK         0.0786 
    104 H104       26.7111   -3.2026   -0.6028 H         1 UNK         0.2977 
    105 H105       25.2520    0.9013   -5.4946 H         1 UNK         0.3127 
    106 H106       24.7532    3.6833   -5.6703 H         1 UNK         0.0770 
    107 H107       23.1530    1.3204   -6.7975 H         1 UNK         0.0814 
    108 H108       22.5380    2.9501   -6.5583 H         1 UNK         0.0814 
    109 H109       23.0024    1.9805   -5.1689 H         1 UNK         0.0814 
    110 H110       25.9514    1.4377   -8.1258 H         1 UNK         0.2983 
    111 H111       25.5643    3.3716  -10.3370 H         1 UNK         0.0947 
    112 H112       26.4634    1.5386  -11.7243 H         1 UNK         0.0806 
    113 H113       25.1623    0.9247  -10.7189 H         1 UNK         0.0806 
    114 H114       26.8389    0.5858  -10.2968 H         1 UNK         0.0806 
    115 H115       27.6635    3.2404   -7.8174 H         1 UNK         0.3000 
    116 H116       29.5503    4.1297   -7.2512 H         1 UNK         0.0850 
    117 H117       30.6109    5.9208   -8.5875 H         1 UNK         0.0810 
    118 H118       28.8676    6.1247   -8.5377 H         1 UNK         0.0810 
    119 H119       29.6439    5.4969   -9.9899 H         1 UNK         0.0810 
    120 H120       30.0316    3.0561  -10.6309 H         1 UNK         0.3040 
    121 H121       32.8353    2.4078  -10.1967 H         1 UNK         0.0766 
    122 H122       32.0130    3.2416  -12.3850 H         1 UNK         0.0812 
    123 H123       30.9728    1.8287  -12.5643 H         1 UNK         0.0812 
    124 H124       32.7221    1.6467  -12.5732 H         1 UNK         0.0812 
    125 H125       29.8533    0.5915   -9.9490 H         1 UNK         0.3205 
    126 H126       31.0889   -2.0389  -10.2919 H         1 UNK         0.0754 
    127 H127       28.7788   -2.8533   -9.9212 H         1 UNK         0.0769 
    128 H128       28.8137   -1.6068  -11.1572 H         1 UNK         0.0769 
    129 H129       28.2404   -1.2268   -9.5357 H         1 UNK         0.0769 
    130 H130       32.6995   -1.6186   -8.5588 H         1 UNK         0.2981 
    131 H131       31.9429   -1.8426   -5.7897 H         1 UNK         0.0541 
    132 H132       32.0034   -3.7089   -4.3903 H         1 UNK         0.3459 
    133 H133       31.8129   -5.3197   -5.0425 H         1 UNK         0.3459 
    134 H134       34.4052   -2.6680   -5.5606 H         1 UNK         0.0612 
    135 H135       34.5560   -2.4257   -7.2769 H         1 UNK         0.0612 
    136 H136       35.1134    0.6569   -4.0705 H         1 UNK         0.0624 
    137 H137       35.4888   -1.0440   -4.1166 H         1 UNK         0.0624 
@<TRIPOS>BOND
     1    1    2 1    
     2    1   72 1    
     3    1   73 1    
     4    1   74 1    
     5    2    3 2    
     6    2    4 am   BACKBONE|DICT|INTERRES
     7    4    5 1    
     8    4   75 1    
     9    5    6 1    
    10    5   35 1    
    11    5   76 1    
    12    6    7 1    
    13    6   77 1    
    14    6   78 1    
    15    7    8 1    
    16    8    9 1    
    17    8   79 1    
    18    8   80 1    
    19    9   10 ar   
    20    9   14 ar   
    21   10   11 ar   
    22   10   81 1    
    23   11   12 ar   
    24   11   71 1    
    25   12   13 ar   
    26   12   82 1    
    27   13   14 ar   
    28   13   15 1    
    29   14   83 1    
    30   15   16 1    
    31   15   84 1    
    32   15   85 1    
    33   16   17 1    
    34   17   18 1    
    35   17   86 1    
    36   17   87 1    
    37   18   19 1    
    38   18   37 1    
    39   18   88 1    
    40   19   20 am   BACKBONE|DICT|INTERRES
    41   19   89 1    
    42   20   21 2    
    43   20   22 1    
    44   22   23 1    
    45   22   24 1    
    46   22   90 1    
    47   23   91 1    
    48   23   92 1    
    49   23   93 1    
    50   24   25 am   BACKBONE|DICT|INTERRES
    51   24   94 1    
    52   25   26 2    
    53   25   27 1    
    54   27   28 1    
    55   27   29 1    
    56   27   95 1    
    57   28   96 1    
    58   28   97 1    
    59   28   98 1    
    60   29   30 am   BACKBONE|DICT|INTERRES
    61   29   99 1    
    62   30   31 2    
    63   30   32 1    
    64   32   33 1    
    65   32   34 1    
    66   32  100 1    
    67   33  101 1    
    68   33  102 1    
    69   33  103 1    
    70   34   35 am   BACKBONE|DICT|INTERRES
    71   34  104 1    
    72   35   36 2    
    73   37   38 2    
    74   37   39 am   BACKBONE|DICT|INTERRES
    75   39   40 1    
    76   39  105 1    
    77   40   41 1    
    78   40   42 1    
    79   40  106 1    
    80   41  107 1    
    81   41  108 1    
    82   41  109 1    
    83   42   43 2    
    84   42   44 am   BACKBONE|DICT|INTERRES
    85   44   45 1    
    86   44  110 1    
    87   45   46 1    
    88   45   47 1    
    89   45  111 1    
    90   46  112 1    
    91   46  113 1    
    92   46  114 1    
    93   47   48 2    
    94   47   49 am   BACKBONE|DICT|INTERRES
    95   49   50 1    
    96   49  115 1    
    97   50   51 1    
    98   50   52 1    
    99   50  116 1    
   100   51  117 1    
   101   51  118 1    
   102   51  119 1    
   103   52   53 2    
   104   52   54 am   BACKBONE|DICT|INTERRES
   105   54   55 1    
   106   54  120 1    
   107   55   56 1    
   108   55   57 1    
   109   55  121 1    
   110   56  122 1    
   111   56  123 1    
   112   56  124 1    
   113   57   58 2    
   114   57   59 am   BACKBONE|DICT|INTERRES
   115   59   60 1    
   116   59  125 1    
   117   60   61 1    
   118   60   62 1    
   119   60  126 1    
   120   61  127 1    
   121   61  128 1    
   122   61  129 1    
   123   62   63 2    
   124   62   64 am   BACKBONE|DICT|INTERRES
   125   64   65 1    
   126   64  130 1    
   127   65   66 1    
   128   65   69 1    
   129   65  131 1    
   130   66   67 am   BACKBONE|DICT|INTERRES
   131   66   68 2    
   132   67  132 1    
   133   67  133 1    
   134   69   70 1    
   135   69  134 1    
   136   69  135 1    
   137   70   71 1    
   138   71  136 1    
   139   71  137 1    
@<TRIPOS>SUBSTRUCTURE
     1 UNK         1 GROUP             0       ****    0 ROOT    
