@<TRIPOS>MOLECULE
3R137
137   139    1
SMALL
USER_CHARGES


@<TRIPOS>ATOM
      1 CA         27.9049   -1.4702    3.2701 C.3       0 UNK        -0.2020 
      2 C          28.4805   -0.6771    2.1067 C.2       0 UNK         0.4855 
      3 O          28.8198    0.4946    2.2721 O.2       0 UNK        -0.5197 
      4 N          28.5922   -1.3056    0.9292 N.am      1 UNK        -0.4892 
      5 CA         29.1036   -0.6942   -0.3056 C.3       1 UNK         0.0835 
      6 C6         29.5758   -1.7696   -1.3158 C.3       12 UNK        -0.0855 
      7 S7         28.2617   -2.9496   -1.7983 S.3       12 UNK        -0.2931 
      8 C8         29.2277   -4.4375   -2.2042 C.3       12 UNK         0.0378 
      9 C9         29.7256   -4.4451   -3.6455 C.ar      12 UNK        -0.0802 
     10 C10        30.9242   -3.8085   -3.9887 C.ar      12 UNK        -0.0944 
     11 C11        31.4314   -3.9045   -5.2893 C.ar      12 UNK        -0.0787 
     12 C12        30.7259   -4.6363   -6.2506 C.ar      12 UNK        -0.0862 
     13 C13        29.5286   -5.2793   -5.9218 C.ar      12 UNK        -0.0733 
     14 C14        29.0254   -5.1643   -4.6213 C.ar      12 UNK        -0.0832 
     15 C15        28.8414   -6.1867   -6.9383 C.3       12 UNK         0.0240 
     16 S16        28.1631   -5.2965   -8.3752 S.3       12 UNK        -0.2522 
     17 C17        26.6876   -4.5031   -7.6525 C.3       12 UNK        -0.0967 
     18 CA         26.4067   -3.0854   -8.2131 C.3       5 UNK         0.0660 
     19 N          25.1412   -2.5619   -7.6924 N.am      5 UNK        -0.4015 
     20 C          24.5763   -1.3910   -8.0241 C.2       4 UNK         0.4946 
     21 O          25.0000   -0.6427   -8.9042 O.2       4 UNK        -0.5353 
     22 CA         23.3628   -0.9550   -7.1816 C.3       4 UNK         0.0277 
     23 CB         22.0591   -1.4958   -7.7896 C.3       4 UNK        -0.1981 
     24 N          23.4608   -1.3618   -5.7727 N.am      4 UNK        -0.4209 
     25 C          24.4365   -0.9719   -4.9393 C.2       3 UNK         0.4942 
     26 O          25.3433   -0.2040   -5.2662 O.2       3 UNK        -0.5208 
     27 CA         24.4445   -1.6228   -3.5455 C.3       3 UNK         0.0250 
     28 CB         25.0686   -3.0273   -3.6252 C.3       3 UNK        -0.1990 
     29 N          25.1895   -0.8345   -2.5602 N.am      3 UNK        -0.4232 
     30 C          24.8116    0.3633   -2.0902 C.2       2 UNK         0.4993 
     31 O          23.7581    0.9156   -2.4132 O.2       2 UNK        -0.5286 
     32 CA         25.7345    1.0549   -1.0684 C.3       2 UNK         0.0209 
     33 CB         24.9408    1.5305    0.1628 C.3       2 UNK        -0.1931 
     34 N          26.8216    0.1856   -0.6072 N.am      2 UNK        -0.4546 
     35 C          28.1124    0.3047   -0.9476 C.2       1 UNK         0.5154 
     36 O          28.5362    1.1591   -1.7263 O.2       1 UNK        -0.5181 
     37 C          27.5699   -2.1118   -7.9355 C.2       5 UNK         0.5014 
     38 O          28.2724   -1.7195   -8.8670 O.2       5 UNK        -0.5248 
     39 N          27.7152   -1.7117   -6.6655 N.am      6 UNK        -0.4434 
     40 CA         28.7350   -0.7767   -6.1994 C.3       6 UNK         0.0363 
     41 CB         28.7041   -0.7108   -4.6698 C.3       6 UNK        -0.1936 
     42 C          28.5895    0.6226   -6.8051 C.2       6 UNK         0.5081 
     43 O          29.5998    1.2235   -7.1657 O.2       6 UNK        -0.5248 
     44 N          27.3447    1.0993   -6.9371 N.am      7 UNK        -0.4718 
     45 CA         27.0081    2.3619   -7.5955 C.3       7 UNK         0.0273 
     46 CB         25.5181    2.6733   -7.3851 C.3       7 UNK        -0.1935 
     47 C          27.3665    2.3642   -9.0916 C.2       7 UNK         0.5018 
     48 O          27.9348    3.3461   -9.5700 O.2       7 UNK        -0.5186 
     49 N          27.0540    1.2652   -9.7942 N.am      8 UNK        -0.4240 
     50 CA         27.3747    1.0691  -11.2100 C.3       8 UNK         0.0235 
     51 CB         26.5964   -0.1392  -11.7557 C.3       8 UNK        -0.2000 
     52 C          28.8822    0.9058  -11.4650 C.2       8 UNK         0.4941 
     53 O          29.4073    1.5227  -12.3927 O.2       8 UNK        -0.5273 
     54 N          29.5504    0.0846  -10.6435 N.am      9 UNK        -0.4262 
     55 CA         30.9864   -0.1960  -10.7369 C.3       9 UNK         0.0264 
     56 CB         31.2821   -1.5148  -10.0059 C.3       9 UNK        -0.1955 
     57 C          31.8835    0.9339  -10.1971 C.2       9 UNK         0.5031 
     58 O          33.0770    0.9358  -10.5030 O.2       9 UNK        -0.5390 
     59 N          31.3085    1.8533   -9.4075 N.am      10 UNK        -0.4204 
     60 CA         31.9596    2.9493   -8.6802 C.3       10 UNK         0.0237 
     61 CB         32.6023    3.9678   -9.6466 C.3       10 UNK        -0.1985 
     62 C          32.9261    2.4277   -7.5986 C.2       10 UNK         0.4970 
     63 O          34.0601    2.9010   -7.4969 O.2       10 UNK        -0.4914 
     64 N          32.4530    1.4494   -6.8172 N.am      11 UNK        -0.4285 
     65 CA         33.1727    0.8535   -5.6822 C.3       11 UNK         0.1007 
     66 C          33.2802    1.8272   -4.4769 C.2       11 UNK         0.5703 
     67 N          34.3188    1.6903   -3.6635 N.am      11 UNK        -0.7361 
     68 O          32.4207    2.6774   -4.2506 O.2       11 UNK        -0.4986 
     69 C69        32.5430   -0.4965   -5.2492 C.3       12 UNK        -0.0947 
     70 S70        32.6253   -1.7437   -6.5756 S.3       12 UNK        -0.2240 
     71 C71        32.7829   -3.2980   -5.6443 C.3       12 UNK         0.0194 
     72 H72        27.0012   -0.9881    3.6421 H         1 UNK         0.0906 
     73 H73        27.6514   -2.4907    2.9832 H         1 UNK         0.0906 
     74 H74        28.6264   -1.5169    4.0853 H         1 UNK         0.0906 
     75 H75        28.3038   -2.2709    0.8425 H         1 UNK         0.3140 
     76 H76        29.9818   -0.1031   -0.0350 H         1 UNK         0.1085 
     77 H77        29.9953   -1.3019   -2.2069 H         1 UNK         0.0836 
     78 H78        30.4018   -2.3258   -0.8704 H         1 UNK         0.0836 
     79 H79        28.5953   -5.3093   -2.0293 H         1 UNK         0.0731 
     80 H80        30.0672   -4.5435   -1.5157 H         1 UNK         0.0731 
     81 H81        31.4792   -3.2680   -3.2346 H         1 UNK         0.1312 
     82 H82        31.1283   -4.7357   -7.2497 H         1 UNK         0.1406 
     83 H83        28.1126   -5.6783   -4.3521 H         1 UNK         0.1631 
     84 H84        28.0449   -6.7673   -6.4700 H         1 UNK         0.0717 
     85 H85        29.5690   -6.9150   -7.2992 H         1 UNK         0.0717 
     86 H86        25.8372   -5.1559   -7.8566 H         1 UNK         0.0934 
     87 H87        26.7857   -4.4721   -6.5659 H         1 UNK         0.0934 
     88 H88        26.2979   -3.1616   -9.2972 H         1 UNK         0.0739 
     89 H89        24.6943   -3.1068   -6.9711 H         1 UNK         0.3093 
     90 H90        23.3233    0.1358   -7.2061 H         1 UNK         0.0818 
     91 H91        21.1860   -1.1173   -7.2577 H         1 UNK         0.0819 
     92 H92        21.9590   -1.1876   -8.8315 H         1 UNK         0.0819 
     93 H93        22.0208   -2.5856   -7.7675 H         1 UNK         0.0819 
     94 H94        22.7497   -1.9931   -5.4312 H         1 UNK         0.3041 
     95 H95        23.4131   -1.7111   -3.1976 H         1 UNK         0.0784 
     96 H96        24.5052   -3.6755   -4.2973 H         1 UNK         0.0793 
     97 H97        26.0968   -2.9938   -3.9880 H         1 UNK         0.0793 
     98 H98        25.0779   -3.5124   -2.6487 H         1 UNK         0.0793 
     99 H99        26.0814   -1.2032   -2.2635 H         1 UNK         0.3024 
    100 H100       26.1438    1.9357   -1.5685 H         1 UNK         0.1171 
    101 H101       25.5881    2.0383    0.8783 H         1 UNK         0.0786 
    102 H102       24.1594    2.2373   -0.1198 H         1 UNK         0.0786 
    103 H103       24.4587    0.6990    0.6782 H         1 UNK         0.0786 
    104 H104       26.5719   -0.5520    0.0364 H         1 UNK         0.2977 
    105 H105       27.0533   -2.0295   -5.9753 H         1 UNK         0.3127 
    106 H106       29.7049   -1.1697   -6.5084 H         1 UNK         0.0770 
    107 H107       27.7163   -0.4633   -4.2833 H         1 UNK         0.0814 
    108 H108       29.3898    0.0444   -4.2854 H         1 UNK         0.0814 
    109 H109       28.9991   -1.6706   -4.2539 H         1 UNK         0.0814 
    110 H110       26.5779    0.5594   -6.5431 H         1 UNK         0.2983 
    111 H111       27.5924    3.1493   -7.1143 H         1 UNK         0.0947 
    112 H112       25.2590    3.6428   -7.8124 H         1 UNK         0.0806 
    113 H113       25.2651    2.7060   -6.3250 H         1 UNK         0.0806 
    114 H114       24.8791    1.9276   -7.8580 H         1 UNK         0.0806 
    115 H115       26.5425    0.5167   -9.3335 H         1 UNK         0.3000 
    116 H116       27.0427    1.9565  -11.7533 H         1 UNK         0.0850 
    117 H117       26.8142   -0.3014  -12.8121 H         1 UNK         0.0810 
    118 H118       25.5204    0.0105  -11.6649 H         1 UNK         0.0810 
    119 H119       26.8496   -1.0571  -11.2234 H         1 UNK         0.0810 
    120 H120       29.0318   -0.4357   -9.9356 H         1 UNK         0.3040 
    121 H121       31.2414   -0.3316  -11.7900 H         1 UNK         0.0766 
    122 H122       30.9842   -1.4620   -8.9588 H         1 UNK         0.0812 
    123 H123       32.3457   -1.7556  -10.0333 H         1 UNK         0.0812 
    124 H124       30.7468   -2.3489  -10.4597 H         1 UNK         0.0812 
    125 H125       30.3381    1.7015   -9.1580 H         1 UNK         0.3205 
    126 H126       31.1618    3.4678   -8.1459 H         1 UNK         0.0754 
    127 H127       32.9644    4.8422   -9.1047 H         1 UNK         0.0769 
    128 H128       31.8825    4.3196  -10.3858 H         1 UNK         0.0769 
    129 H129       33.4528    3.5439  -10.1811 H         1 UNK         0.0769 
    130 H130       31.4816    1.1746   -6.9327 H         1 UNK         0.2981 
    131 H131       34.1909    0.6511   -6.0210 H         1 UNK         0.0541 
    132 H132       35.0264    0.9923   -3.8323 H         1 UNK         0.3459 
    133 H133       34.4011    2.3041   -2.8682 H         1 UNK         0.3459 
    134 H134       31.5036   -0.3628   -4.9575 H         1 UNK         0.0612 
    135 H135       33.0586   -0.8882   -4.3708 H         1 UNK         0.0612 
    136 H136       33.3378   -4.0075   -6.2598 H         1 UNK         0.0624 
    137 H137       33.3895   -3.1450   -4.7508 H         1 UNK         0.0624 
@<TRIPOS>BOND
     1    1    2 1    
     2    1   72 1    
     3    1   73 1    
     4    1   74 1    
     5    2    3 2    
     6    2    4 am   BACKBONE|DICT|INTERRES
     7    4    5 1    
     8    4   75 1    
     9    5    6 1    
    10    5   35 1    
    11    5   76 1    
    12    6    7 1    
    13    6   77 1    
    14    6   78 1    
    15    7    8 1    
    16    8    9 1    
    17    8   79 1    
    18    8   80 1    
    19    9   10 ar   
    20    9   14 ar   
    21   10   11 ar   
    22   10   81 1    
    23   11   12 ar   
    24   11   71 1    
    25   12   13 ar   
    26   12   82 1    
    27   13   14 ar   
    28   13   15 1    
    29   14   83 1    
    30   15   16 1    
    31   15   84 1    
    32   15   85 1    
    33   16   17 1    
    34   17   18 1    
    35   17   86 1    
    36   17   87 1    
    37   18   19 1    
    38   18   37 1    
    39   18   88 1    
    40   19   20 am   BACKBONE|DICT|INTERRES
    41   19   89 1    
    42   20   21 2    
    43   20   22 1    
    44   22   23 1    
    45   22   24 1    
    46   22   90 1    
    47   23   91 1    
    48   23   92 1    
    49   23   93 1    
    50   24   25 am   BACKBONE|DICT|INTERRES
    51   24   94 1    
    52   25   26 2    
    53   25   27 1    
    54   27   28 1    
    55   27   29 1    
    56   27   95 1    
    57   28   96 1    
    58   28   97 1    
    59   28   98 1    
    60   29   30 am   BACKBONE|DICT|INTERRES
    61   29   99 1    
    62   30   31 2    
    63   30   32 1    
    64   32   33 1    
    65   32   34 1    
    66   32  100 1    
    67   33  101 1    
    68   33  102 1    
    69   33  103 1    
    70   34   35 am   BACKBONE|DICT|INTERRES
    71   34  104 1    
    72   35   36 2    
    73   37   38 2    
    74   37   39 am   BACKBONE|DICT|INTERRES
    75   39   40 1    
    76   39  105 1    
    77   40   41 1    
    78   40   42 1    
    79   40  106 1    
    80   41  107 1    
    81   41  108 1    
    82   41  109 1    
    83   42   43 2    
    84   42   44 am   BACKBONE|DICT|INTERRES
    85   44   45 1    
    86   44  110 1    
    87   45   46 1    
    88   45   47 1    
    89   45  111 1    
    90   46  112 1    
    91   46  113 1    
    92   46  114 1    
    93   47   48 2    
    94   47   49 am   BACKBONE|DICT|INTERRES
    95   49   50 1    
    96   49  115 1    
    97   50   51 1    
    98   50   52 1    
    99   50  116 1    
   100   51  117 1    
   101   51  118 1    
   102   51  119 1    
   103   52   53 2    
   104   52   54 am   BACKBONE|DICT|INTERRES
   105   54   55 1    
   106   54  120 1    
   107   55   56 1    
   108   55   57 1    
   109   55  121 1    
   110   56  122 1    
   111   56  123 1    
   112   56  124 1    
   113   57   58 2    
   114   57   59 am   BACKBONE|DICT|INTERRES
   115   59   60 1    
   116   59  125 1    
   117   60   61 1    
   118   60   62 1    
   119   60  126 1    
   120   61  127 1    
   121   61  128 1    
   122   61  129 1    
   123   62   63 2    
   124   62   64 am   BACKBONE|DICT|INTERRES
   125   64   65 1    
   126   64  130 1    
   127   65   66 1    
   128   65   69 1    
   129   65  131 1    
   130   66   67 am   BACKBONE|DICT|INTERRES
   131   66   68 2    
   132   67  132 1    
   133   67  133 1    
   134   69   70 1    
   135   69  134 1    
   136   69  135 1    
   137   70   71 1    
   138   71  136 1    
   139   71  137 1    
@<TRIPOS>SUBSTRUCTURE
     1 UNK         1 GROUP             0       ****    0 ROOT    
