@<TRIPOS>MOLECULE
3R137
137   139    1
SMALL
USER_CHARGES


@<TRIPOS>ATOM
      1 CA         30.7296    1.4242    1.2817 C.3       0 UNK        -0.2020 
      2 C          30.0490    0.4285    0.3543 C.2       0 UNK         0.4855 
      3 O          30.7255   -0.2457   -0.4211 O.2       0 UNK        -0.5197 
      4 N          28.7182    0.3343    0.4263 N.am      1 UNK        -0.4892 
      5 CA         27.8707   -0.5124   -0.4117 C.3       1 UNK         0.0835 
      6 C6         27.9499   -2.0198   -0.0350 C.3       12 UNK        -0.0855 
      7 S7         27.4770   -3.1285   -1.4161 S.3       12 UNK        -0.2931 
      8 C8         28.9979   -4.0846   -1.7205 C.3       12 UNK         0.0378 
      9 C9         29.6213   -3.7506   -3.0680 C.ar      12 UNK        -0.0802 
     10 C10        30.4200   -2.6121   -3.2132 C.ar      12 UNK        -0.0944 
     11 C11        31.0412   -2.3357   -4.4346 C.ar      12 UNK        -0.0787 
     12 C12        30.8642   -3.2082   -5.5111 C.ar      12 UNK        -0.0862 
     13 C13        30.0690   -4.3495   -5.3813 C.ar      12 UNK        -0.0733 
     14 C14        29.4406   -4.6091   -4.1585 C.ar      12 UNK        -0.0832 
     15 C15        29.9349   -5.3306   -6.5414 C.3       12 UNK         0.0240 
     16 S16        29.3110   -4.5609   -8.0715 S.3       12 UNK        -0.2522 
     17 C17        27.6354   -4.0637   -7.5646 C.3       12 UNK        -0.0967 
     18 CA         27.1887   -2.6948   -8.1352 C.3       5 UNK         0.0660 
     19 N          25.7407   -2.5478   -7.9632 N.am      5 UNK        -0.4015 
     20 C          24.9828   -1.5516   -8.4374 C.2       4 UNK         0.4946 
     21 O          25.4074   -0.6412   -9.1448 O.2       4 UNK        -0.5353 
     22 CA         23.5058   -1.5443   -8.0015 C.3       4 UNK         0.0277 
     23 CB         22.6500   -2.3462   -8.9947 C.3       4 UNK        -0.1981 
     24 N          23.2801   -2.0456   -6.6385 N.am      4 UNK        -0.4209 
     25 C          23.8504   -1.5496   -5.5313 C.2       3 UNK         0.4942 
     26 O          24.6663   -0.6232   -5.5329 O.2       3 UNK        -0.5208 
     27 CA         23.4976   -2.2408   -4.2116 C.3       3 UNK         0.0250 
     28 CB         24.2213   -3.5961   -4.0923 C.3       3 UNK        -0.1990 
     29 N          23.9088   -1.3738   -3.1126 N.am      3 UNK        -0.4232 
     30 C          23.3684   -1.3468   -1.8906 C.2       2 UNK         0.4993 
     31 O          22.4274   -2.0625   -1.5421 O.2       2 UNK        -0.5286 
     32 CA         24.0379   -0.3990   -0.8850 C.3       2 UNK         0.0209 
     33 CB         23.4132   -0.4722    0.5250 C.3       2 UNK        -0.1931 
     34 N          25.4626   -0.7231   -0.8308 N.am      2 UNK        -0.4546 
     35 C          26.4400    0.0681   -0.3812 C.2       1 UNK         0.5154 
     36 O          26.2478    1.2083    0.0522 O.2       1 UNK        -0.5181 
     37 C          27.9757   -1.5110   -7.5216 C.2       5 UNK         0.5014 
     38 O          28.9085   -0.9949   -8.1448 O.2       5 UNK        -0.5248 
     39 N          27.5547   -1.0748   -6.3260 N.am      6 UNK        -0.4434 
     40 CA         28.1217    0.0750   -5.6263 C.3       6 UNK         0.0363 
     41 CB         27.7704   -0.0029   -4.1351 C.3       6 UNK        -0.1936 
     42 C          27.6469    1.4011   -6.2358 C.2       6 UNK         0.5081 
     43 O          28.4534    2.3199   -6.3659 O.2       6 UNK        -0.5248 
     44 N          26.3691    1.4716   -6.6389 N.am      7 UNK        -0.4718 
     45 CA         25.7731    2.6276   -7.3213 C.3       7 UNK         0.0273 
     46 CB         24.2567    2.4254   -7.4577 C.3       7 UNK        -0.1935 
     47 C          26.4108    2.9105   -8.6942 C.2       7 UNK         0.5018 
     48 O          26.6038    4.0749   -9.0444 O.2       7 UNK        -0.5186 
     49 N          26.7718    1.8430   -9.4205 N.am      8 UNK        -0.4240 
     50 CA         27.5538    1.8825  -10.6599 C.3       8 UNK         0.0235 
     51 CB         27.4177    0.5287  -11.3776 C.3       8 UNK        -0.2000 
     52 C          29.0422    2.2235  -10.4458 C.2       8 UNK         0.4941 
     53 O          29.7426    2.4505  -11.4333 O.2       8 UNK        -0.5273 
     54 N          29.4987    2.2465   -9.1835 N.am      9 UNK        -0.4262 
     55 CA         30.8599    2.5342   -8.7263 C.3       9 UNK         0.0264 
     56 CB         31.2437    3.9999   -9.0228 C.3       9 UNK        -0.1955 
     57 C          31.8945    1.5203   -9.2437 C.2       9 UNK         0.5031 
     58 O          33.0004    1.9132   -9.6222 O.2       9 UNK        -0.5390 
     59 N          31.5439    0.2239   -9.2162 N.am      10 UNK        -0.4204 
     60 CA         32.4180   -0.8768   -9.6481 C.3       10 UNK         0.0237 
     61 CB         31.6186   -2.1867   -9.6552 C.3       10 UNK        -0.1985 
     62 C          33.7094   -1.0293   -8.8172 C.2       10 UNK         0.4970 
     63 O          34.6752   -1.6128   -9.3106 O.2       10 UNK        -0.4914 
     64 N          33.7132   -0.4821   -7.5949 N.am      11 UNK        -0.4285 
     65 CA         34.8972   -0.3277   -6.7364 C.3       11 UNK         0.1007 
     66 C          35.8838    0.7850   -7.2031 C.2       11 UNK         0.5703 
     67 N          35.5437    1.6358   -8.1657 N.am      11 UNK        -0.7361 
     68 O          36.9937    0.8715   -6.6831 O.2       11 UNK        -0.4986 
     69 C69        34.4957   -0.1285   -5.2497 C.3       12 UNK        -0.0947 
     70 S70        33.6828   -1.6028   -4.5539 S.3       12 UNK        -0.2240 
     71 C71        31.9313   -1.1160   -4.5974 C.3       12 UNK         0.0194 
     72 H72        31.4383    0.9089    1.9293 H         1 UNK         0.0906 
     73 H73        30.0134    1.9496    1.9131 H         1 UNK         0.0906 
     74 H74        31.2766    2.1653    0.6996 H         1 UNK         0.0906 
     75 H75        28.1900    0.9612    1.0228 H         1 UNK         0.3140 
     76 H76        28.2309   -0.3930   -1.4330 H         1 UNK         0.1085 
     77 H77        27.3216   -2.2400    0.8303 H         1 UNK         0.0836 
     78 H78        28.9622   -2.2673    0.2840 H         1 UNK         0.0836 
     79 H79        29.7330   -3.9282   -0.9307 H         1 UNK         0.0731 
     80 H80        28.7467   -5.1455   -1.6775 H         1 UNK         0.0731 
     81 H81        30.5679   -1.9508   -2.3707 H         1 UNK         0.1312 
     82 H82        31.3655   -3.0084   -6.4469 H         1 UNK         0.1406 
     83 H83        28.8330   -5.4968   -4.0446 H         1 UNK         0.1631 
     84 H84        29.2808   -6.1627   -6.2760 H         1 UNK         0.0717 
     85 H85        30.9145   -5.7649   -6.7452 H         1 UNK         0.0717 
     86 H86        26.9644   -4.8493   -7.9166 H         1 UNK         0.0934 
     87 H87        27.5505   -4.0705   -6.4765 H         1 UNK         0.0934 
     88 H88        27.3820   -2.6879   -9.2101 H         1 UNK         0.0739 
     89 H89        25.2847   -3.2508   -7.4017 H         1 UNK         0.3093 
     90 H90        23.1637   -0.5090   -8.0232 H         1 UNK         0.0818 
     91 H91        22.7863   -1.9773  -10.0126 H         1 UNK         0.0819 
     92 H92        22.9117   -3.4050   -8.9945 H         1 UNK         0.0819 
     93 H93        21.5880   -2.2618   -8.7631 H         1 UNK         0.0819 
     94 H94        22.6260   -2.8098   -6.5434 H         1 UNK         0.3041 
     95 H95        22.4160   -2.3889   -4.1782 H         1 UNK         0.0784 
     96 H96        23.9358   -4.2733   -4.8980 H         1 UNK         0.0793 
     97 H97        25.3056   -3.4791   -4.1281 H         1 UNK         0.0793 
     98 H98        23.9746   -4.0941   -3.1543 H         1 UNK         0.0793 
     99 H99        24.6314   -0.7101   -3.3618 H         1 UNK         0.3024 
    100 H100       23.9161    0.6170   -1.2676 H         1 UNK         0.1171 
    101 H101       23.5289   -1.4638    0.9641 H         1 UNK         0.0786 
    102 H102       23.8687    0.2492    1.2034 H         1 UNK         0.0786 
    103 H103       22.3458   -0.2501    0.4918 H         1 UNK         0.0786 
    104 H104       25.7175   -1.6467   -1.1652 H         1 UNK         0.2977 
    105 H105       26.7267   -1.4847   -5.9173 H         1 UNK         0.3127 
    106 H106       29.2090    0.0306   -5.7185 H         1 UNK         0.0770 
    107 H107       28.2790    0.7864   -3.5801 H         1 UNK         0.0814 
    108 H108       26.7012    0.1109   -3.9585 H         1 UNK         0.0814 
    109 H109       28.0819   -0.9577   -3.7124 H         1 UNK         0.0814 
    110 H110       25.7577    0.6830   -6.4440 H         1 UNK         0.2983 
    111 H111       25.9452    3.5028   -6.6910 H         1 UNK         0.0947 
    112 H112       24.0212    1.6187   -8.1506 H         1 UNK         0.0806 
    113 H113       23.7789    3.3284   -7.8398 H         1 UNK         0.0806 
    114 H114       23.7948    2.1931   -6.4978 H         1 UNK         0.0806 
    115 H115       26.4800    0.9210   -9.1026 H         1 UNK         0.3000 
    116 H116       27.1334    2.6576  -11.3039 H         1 UNK         0.0850 
    117 H117       27.9616    0.5266  -12.3231 H         1 UNK         0.0810 
    118 H118       26.3755    0.3033  -11.6042 H         1 UNK         0.0810 
    119 H119       27.8122   -0.2877  -10.7708 H         1 UNK         0.0810 
    120 H120       28.8365    2.0600   -8.4394 H         1 UNK         0.3040 
    121 H121       30.8460    2.4169   -7.6420 H         1 UNK         0.0766 
    122 H122       31.3368    4.1868  -10.0930 H         1 UNK         0.0812 
    123 H123       32.2007    4.2534   -8.5652 H         1 UNK         0.0812 
    124 H124       30.5015    4.6914   -8.6239 H         1 UNK         0.0812 
    125 H125       30.6155   -0.0342   -8.8912 H         1 UNK         0.3205 
    126 H126       32.7250   -0.6639  -10.6742 H         1 UNK         0.0754 
    127 H127       32.2291   -3.0222  -10.0003 H         1 UNK         0.0769 
    128 H128       30.7524   -2.1222  -10.3143 H         1 UNK         0.0769 
    129 H129       31.2585   -2.4336   -8.6581 H         1 UNK         0.0769 
    130 H130       32.8765   -0.0178   -7.2817 H         1 UNK         0.2981 
    131 H131       35.4655   -1.2578   -6.7989 H         1 UNK         0.0541 
    132 H132       34.6381    1.5933   -8.6231 H         1 UNK         0.3459 
    133 H133       36.2067    2.3397   -8.4475 H         1 UNK         0.3459 
    134 H134       33.8528    0.7455   -5.1313 H         1 UNK         0.0612 
    135 H135       35.3778    0.0597   -4.6346 H         1 UNK         0.0612 
    136 H136       31.7375   -0.3837   -3.8118 H         1 UNK         0.0624 
    137 H137       31.7014   -0.6284   -5.5452 H         1 UNK         0.0624 
@<TRIPOS>BOND
     1    1    2 1    
     2    1   72 1    
     3    1   73 1    
     4    1   74 1    
     5    2    3 2    
     6    2    4 am   BACKBONE|DICT|INTERRES
     7    4    5 1    
     8    4   75 1    
     9    5    6 1    
    10    5   35 1    
    11    5   76 1    
    12    6    7 1    
    13    6   77 1    
    14    6   78 1    
    15    7    8 1    
    16    8    9 1    
    17    8   79 1    
    18    8   80 1    
    19    9   10 ar   
    20    9   14 ar   
    21   10   11 ar   
    22   10   81 1    
    23   11   12 ar   
    24   11   71 1    
    25   12   13 ar   
    26   12   82 1    
    27   13   14 ar   
    28   13   15 1    
    29   14   83 1    
    30   15   16 1    
    31   15   84 1    
    32   15   85 1    
    33   16   17 1    
    34   17   18 1    
    35   17   86 1    
    36   17   87 1    
    37   18   19 1    
    38   18   37 1    
    39   18   88 1    
    40   19   20 am   BACKBONE|DICT|INTERRES
    41   19   89 1    
    42   20   21 2    
    43   20   22 1    
    44   22   23 1    
    45   22   24 1    
    46   22   90 1    
    47   23   91 1    
    48   23   92 1    
    49   23   93 1    
    50   24   25 am   BACKBONE|DICT|INTERRES
    51   24   94 1    
    52   25   26 2    
    53   25   27 1    
    54   27   28 1    
    55   27   29 1    
    56   27   95 1    
    57   28   96 1    
    58   28   97 1    
    59   28   98 1    
    60   29   30 am   BACKBONE|DICT|INTERRES
    61   29   99 1    
    62   30   31 2    
    63   30   32 1    
    64   32   33 1    
    65   32   34 1    
    66   32  100 1    
    67   33  101 1    
    68   33  102 1    
    69   33  103 1    
    70   34   35 am   BACKBONE|DICT|INTERRES
    71   34  104 1    
    72   35   36 2    
    73   37   38 2    
    74   37   39 am   BACKBONE|DICT|INTERRES
    75   39   40 1    
    76   39  105 1    
    77   40   41 1    
    78   40   42 1    
    79   40  106 1    
    80   41  107 1    
    81   41  108 1    
    82   41  109 1    
    83   42   43 2    
    84   42   44 am   BACKBONE|DICT|INTERRES
    85   44   45 1    
    86   44  110 1    
    87   45   46 1    
    88   45   47 1    
    89   45  111 1    
    90   46  112 1    
    91   46  113 1    
    92   46  114 1    
    93   47   48 2    
    94   47   49 am   BACKBONE|DICT|INTERRES
    95   49   50 1    
    96   49  115 1    
    97   50   51 1    
    98   50   52 1    
    99   50  116 1    
   100   51  117 1    
   101   51  118 1    
   102   51  119 1    
   103   52   53 2    
   104   52   54 am   BACKBONE|DICT|INTERRES
   105   54   55 1    
   106   54  120 1    
   107   55   56 1    
   108   55   57 1    
   109   55  121 1    
   110   56  122 1    
   111   56  123 1    
   112   56  124 1    
   113   57   58 2    
   114   57   59 am   BACKBONE|DICT|INTERRES
   115   59   60 1    
   116   59  125 1    
   117   60   61 1    
   118   60   62 1    
   119   60  126 1    
   120   61  127 1    
   121   61  128 1    
   122   61  129 1    
   123   62   63 2    
   124   62   64 am   BACKBONE|DICT|INTERRES
   125   64   65 1    
   126   64  130 1    
   127   65   66 1    
   128   65   69 1    
   129   65  131 1    
   130   66   67 am   BACKBONE|DICT|INTERRES
   131   66   68 2    
   132   67  132 1    
   133   67  133 1    
   134   69   70 1    
   135   69  134 1    
   136   69  135 1    
   137   70   71 1    
   138   71  136 1    
   139   71  137 1    
@<TRIPOS>SUBSTRUCTURE
     1 UNK         1 GROUP             0       ****    0 ROOT    
