@<TRIPOS>MOLECULE
3R137
137   139    1
SMALL
USER_CHARGES


@<TRIPOS>ATOM
      1 CA         29.6320    1.5868   -1.1838 C.3       0 UNK        -0.2020 
      2 C          29.0365    0.2776   -0.6903 C.2       0 UNK         0.4855 
      3 O          28.6218    0.1946    0.4648 O.2       0 UNK        -0.5197 
      4 N          28.9660   -0.7333   -1.5672 N.am      1 UNK        -0.4892 
      5 CA         28.5191   -2.1200   -1.3343 C.3       1 UNK         0.0835 
      6 C6         29.3503   -2.8772   -0.2614 C.3       12 UNK        -0.0855 
      7 S7         31.1435   -2.9135   -0.6028 S.3       12 UNK        -0.2931 
      8 C8         31.3595   -4.5735   -1.3221 C.3       12 UNK         0.0378 
      9 C9         31.0934   -4.5661   -2.8193 C.ar      12 UNK        -0.0802 
     10 C10        32.1238   -4.2321   -3.7023 C.ar      12 UNK        -0.0944 
     11 C11        31.8960   -4.2053   -5.0804 C.ar      12 UNK        -0.0787 
     12 C12        30.6337   -4.5390   -5.5751 C.ar      12 UNK        -0.0862 
     13 C13        29.5841   -4.8342   -4.7019 C.ar      12 UNK        -0.0733 
     14 C14        29.8244   -4.8690   -3.3240 C.ar      12 UNK        -0.0832 
     15 C15        28.1838   -5.0720   -5.2447 C.3       12 UNK         0.0240 
     16 S16        27.3169   -3.4937   -5.5278 S.3       12 UNK        -0.2522 
     17 C17        27.7972   -3.1067   -7.2510 C.3       12 UNK        -0.0967 
     18 CA         27.2950   -1.7314   -7.7564 C.3       5 UNK         0.0660 
     19 N          25.8569   -1.5512   -7.5266 N.am      5 UNK        -0.4015 
     20 C          25.1210   -0.4942   -7.8970 C.2       4 UNK         0.4946 
     21 O          25.5590    0.4360   -8.5729 O.2       4 UNK        -0.5353 
     22 CA         23.6727   -0.4171   -7.3830 C.3       4 UNK         0.0277 
     23 CB         22.7003   -0.8909   -8.4745 C.3       4 UNK        -0.1981 
     24 N          23.4009   -1.1470   -6.1360 N.am      4 UNK        -0.4209 
     25 C          24.0660   -1.0137   -4.9790 C.2       3 UNK         0.4942 
     26 O          25.0698   -0.3076   -4.8352 O.2       3 UNK        -0.5208 
     27 CA         23.5322   -1.8270   -3.7942 C.3       3 UNK         0.0250 
     28 CB         23.6791   -3.3441   -4.0298 C.3       3 UNK        -0.1990 
     29 N          24.2730   -1.4335   -2.6018 N.am      3 UNK        -0.4232 
     30 C          23.9063   -1.6389   -1.3336 C.2       2 UNK         0.4993 
     31 O          22.8416   -2.1702   -1.0108 O.2       2 UNK        -0.5286 
     32 CA         24.8939   -1.1648   -0.2463 C.3       2 UNK         0.0209 
     33 CB         24.6909   -1.8992    1.0966 C.3       2 UNK        -0.1931 
     34 N          26.3094   -1.2226   -0.6467 N.am      2 UNK        -0.4546 
     35 C          27.0083   -2.2952   -1.0501 C.2       1 UNK         0.5154 
     36 O          26.5108   -3.4114   -1.2043 O.2       1 UNK        -0.5181 
     37 C          28.1667   -0.5724   -7.2201 C.2       5 UNK         0.5014 
     38 O          29.2029   -0.2784   -7.8200 O.2       5 UNK        -0.5248 
     39 N          27.7096    0.1147   -6.1617 N.am      6 UNK        -0.4434 
     40 CA         28.3365    1.3261   -5.6263 C.3       6 UNK         0.0363 
     41 CB         27.6217    1.7312   -4.3277 C.3       6 UNK        -0.1936 
     42 C          28.3555    2.5081   -6.6170 C.2       6 UNK         0.5081 
     43 O          29.2089    3.3841   -6.4835 O.2       6 UNK        -0.5248 
     44 N          27.4324    2.5138   -7.5887 N.am      7 UNK        -0.4718 
     45 CA         27.3555    3.5016   -8.6637 C.3       7 UNK         0.0273 
     46 CB         25.9189    4.0430   -8.7543 C.3       7 UNK        -0.1935 
     47 C          27.7884    2.8903  -10.0036 C.2       7 UNK         0.5018 
     48 O          28.5952    3.4973  -10.7066 O.2       7 UNK        -0.5186 
     49 N          27.2510    1.7069  -10.3352 N.am      8 UNK        -0.4240 
     50 CA         27.4297    1.0323  -11.6240 C.3       8 UNK         0.0235 
     51 CB         26.4204   -0.1213  -11.7463 C.3       8 UNK        -0.2000 
     52 C          28.8602    0.5303  -11.8685 C.2       8 UNK         0.4941 
     53 O          29.3718    0.6975  -12.9762 O.2       8 UNK        -0.5273 
     54 N          29.4801   -0.0599  -10.8378 N.am      9 UNK        -0.4262 
     55 CA         30.8768   -0.5067  -10.8607 C.3       9 UNK         0.0264 
     56 CB         30.9654   -1.9119  -10.2399 C.3       9 UNK        -0.1955 
     57 C          31.8080    0.4864  -10.1403 C.2       9 UNK         0.5031 
     58 O          33.0241    0.2936  -10.1719 O.2       9 UNK        -0.5390 
     59 N          31.2275    1.5238   -9.5151 N.am      10 UNK        -0.4204 
     60 CA         31.8716    2.5887   -8.7380 C.3       10 UNK         0.0237 
     61 CB         32.7423    3.4807   -9.6488 C.3       10 UNK        -0.1985 
     62 C          32.6291    2.0711   -7.4980 C.2       10 UNK         0.4970 
     63 O          33.6302    2.6715   -7.1012 O.2       10 UNK        -0.4914 
     64 N          32.1519    0.9628   -6.9167 N.am      11 UNK        -0.4285 
     65 CA         32.7419    0.3212   -5.7344 C.3       11 UNK         0.1007 
     66 C          32.6052    1.1793   -4.4469 C.2       11 UNK         0.5703 
     67 N          33.5594    1.0779   -3.5315 N.am      11 UNK        -0.7361 
     68 O          31.6296    1.8996   -4.2506 O.2       11 UNK        -0.4986 
     69 C69        32.1575   -1.0943   -5.5171 C.3       12 UNK        -0.0947 
     70 S70        32.5397   -2.2202   -6.9033 S.3       12 UNK        -0.2240 
     71 C71        32.9945   -3.7567   -6.0331 C.3       12 UNK         0.0194 
     72 H72        30.5097    1.8455   -0.5923 H         1 UNK         0.0906 
     73 H73        29.9350    1.5286   -2.2284 H         1 UNK         0.0906 
     74 H74        28.9048    2.3924   -1.0864 H         1 UNK         0.0906 
     75 H75        29.3168   -0.5723   -2.5007 H         1 UNK         0.3140 
     76 H76        28.6795   -2.6205   -2.2892 H         1 UNK         0.1085 
     77 H77        29.2086   -2.4179    0.7184 H         1 UNK         0.0836 
     78 H78        28.9944   -3.9034   -0.1530 H         1 UNK         0.0836 
     79 H79        32.3841   -4.9003   -1.1373 H         1 UNK         0.0731 
     80 H80        30.7207   -5.2993   -0.8168 H         1 UNK         0.0731 
     81 H81        33.0976   -3.9688   -3.3120 H         1 UNK         0.1312 
     82 H82        30.4636   -4.5191   -6.6416 H         1 UNK         0.1406 
     83 H83        29.0169   -5.1038   -2.6434 H         1 UNK         0.1631 
     84 H84        27.6040   -5.6657   -4.5363 H         1 UNK         0.0717 
     85 H85        28.2238   -5.6523   -6.1678 H         1 UNK         0.0717 
     86 H86        27.3942   -3.8929   -7.8915 H         1 UNK         0.0934 
     87 H87        28.8800   -3.1695   -7.3575 H         1 UNK         0.0934 
     88 H88        27.4298   -1.7217   -8.8394 H         1 UNK         0.0739 
     89 H89        25.4208   -2.2521   -6.9456 H         1 UNK         0.3093 
     90 H90        23.4706    0.6370   -7.1824 H         1 UNK         0.0818 
     91 H91        21.6630   -0.7215   -8.1851 H         1 UNK         0.0819 
     92 H92        22.8649   -0.3488   -9.4072 H         1 UNK         0.0819 
     93 H93        22.8213   -1.9533   -8.6901 H         1 UNK         0.0819 
     94 H94        22.5975   -1.7592   -6.1516 H         1 UNK         0.3041 
     95 H95        22.4786   -1.5738   -3.6591 H         1 UNK         0.0784 
     96 H96        23.1740   -3.6641   -4.9415 H         1 UNK         0.0793 
     97 H97        24.7258   -3.6369   -4.1119 H         1 UNK         0.0793 
     98 H98        23.2441   -3.9152   -3.2094 H         1 UNK         0.0793 
     99 H99        25.1332   -0.9376   -2.8015 H         1 UNK         0.3024 
    100 H100       24.6656   -0.1105   -0.0809 H         1 UNK         0.1171 
    101 H101       25.3796   -1.5319    1.8575 H         1 UNK         0.0786 
    102 H102       24.8450   -2.9741    0.9952 H         1 UNK         0.0786 
    103 H103       23.6803   -1.7497    1.4787 H         1 UNK         0.0786 
    104 H104       26.8477   -0.3778   -0.4921 H         1 UNK         0.2977 
    105 H105       26.8299   -0.1657   -5.7350 H         1 UNK         0.3127 
    106 H106       29.3728    1.0807   -5.3892 H         1 UNK         0.0770 
    107 H107       26.5868    2.0215   -4.5137 H         1 UNK         0.0814 
    108 H108       28.1201    2.5806   -3.8586 H         1 UNK         0.0814 
    109 H109       27.6125    0.9162   -3.6051 H         1 UNK         0.0814 
    110 H110       26.7787    1.7399   -7.6434 H         1 UNK         0.2983 
    111 H111       28.0184    4.3451   -8.4575 H         1 UNK         0.0947 
    112 H112       25.8268    4.7738   -9.5590 H         1 UNK         0.0806 
    113 H113       25.6276    4.5415   -7.8298 H         1 UNK         0.0806 
    114 H114       25.1946    3.2504   -8.9474 H         1 UNK         0.0806 
    115 H115       26.5889    1.2741   -9.6903 H         1 UNK         0.3000 
    116 H116       27.2025    1.7599  -12.4065 H         1 UNK         0.0850 
    117 H117       26.5071   -0.6155  -12.7149 H         1 UNK         0.0810 
    118 H118       25.3952    0.2389  -11.6573 H         1 UNK         0.0810 
    119 H119       26.5737   -0.8793  -10.9781 H         1 UNK         0.0810 
    120 H120       29.0010   -0.1489   -9.9494 H         1 UNK         0.3040 
    121 H121       31.2339   -0.5797  -11.8900 H         1 UNK         0.0766 
    122 H122       31.9925   -2.2793  -10.2479 H         1 UNK         0.0812 
    123 H123       30.6273   -1.9238   -9.2048 H         1 UNK         0.0812 
    124 H124       30.3615   -2.6285  -10.7963 H         1 UNK         0.0812 
    125 H125       30.2203    1.5726   -9.5586 H         1 UNK         0.3205 
    126 H126       31.0631    3.2123   -8.3563 H         1 UNK         0.0754 
    127 H127       33.1047    4.3566   -9.1092 H         1 UNK         0.0769 
    128 H128       32.1747    3.8431  -10.5060 H         1 UNK         0.0769 
    129 H129       33.6151    2.9461  -10.0247 H         1 UNK         0.0769 
    130 H130       31.3201    0.5267   -7.2931 H         1 UNK         0.2981 
    131 H131       33.8098    0.2121   -5.9350 H         1 UNK         0.0541 
    132 H132       34.3598    0.4821   -3.6739 H         1 UNK         0.3459 
    133 H133       33.4818    1.6178   -2.6844 H         1 UNK         0.3459 
    134 H134       31.0737   -1.0548   -5.3914 H         1 UNK         0.0612 
    135 H135       32.5582   -1.5231   -4.5972 H         1 UNK         0.0612 
    136 H136       33.1799   -4.5411   -6.7678 H         1 UNK         0.0624 
    137 H137       33.9340   -3.5979   -5.5017 H         1 UNK         0.0624 
@<TRIPOS>BOND
     1    1    2 1    
     2    1   72 1    
     3    1   73 1    
     4    1   74 1    
     5    2    3 2    
     6    2    4 am   BACKBONE|DICT|INTERRES
     7    4    5 1    
     8    4   75 1    
     9    5    6 1    
    10    5   35 1    
    11    5   76 1    
    12    6    7 1    
    13    6   77 1    
    14    6   78 1    
    15    7    8 1    
    16    8    9 1    
    17    8   79 1    
    18    8   80 1    
    19    9   10 ar   
    20    9   14 ar   
    21   10   11 ar   
    22   10   81 1    
    23   11   12 ar   
    24   11   71 1    
    25   12   13 ar   
    26   12   82 1    
    27   13   14 ar   
    28   13   15 1    
    29   14   83 1    
    30   15   16 1    
    31   15   84 1    
    32   15   85 1    
    33   16   17 1    
    34   17   18 1    
    35   17   86 1    
    36   17   87 1    
    37   18   19 1    
    38   18   37 1    
    39   18   88 1    
    40   19   20 am   BACKBONE|DICT|INTERRES
    41   19   89 1    
    42   20   21 2    
    43   20   22 1    
    44   22   23 1    
    45   22   24 1    
    46   22   90 1    
    47   23   91 1    
    48   23   92 1    
    49   23   93 1    
    50   24   25 am   BACKBONE|DICT|INTERRES
    51   24   94 1    
    52   25   26 2    
    53   25   27 1    
    54   27   28 1    
    55   27   29 1    
    56   27   95 1    
    57   28   96 1    
    58   28   97 1    
    59   28   98 1    
    60   29   30 am   BACKBONE|DICT|INTERRES
    61   29   99 1    
    62   30   31 2    
    63   30   32 1    
    64   32   33 1    
    65   32   34 1    
    66   32  100 1    
    67   33  101 1    
    68   33  102 1    
    69   33  103 1    
    70   34   35 am   BACKBONE|DICT|INTERRES
    71   34  104 1    
    72   35   36 2    
    73   37   38 2    
    74   37   39 am   BACKBONE|DICT|INTERRES
    75   39   40 1    
    76   39  105 1    
    77   40   41 1    
    78   40   42 1    
    79   40  106 1    
    80   41  107 1    
    81   41  108 1    
    82   41  109 1    
    83   42   43 2    
    84   42   44 am   BACKBONE|DICT|INTERRES
    85   44   45 1    
    86   44  110 1    
    87   45   46 1    
    88   45   47 1    
    89   45  111 1    
    90   46  112 1    
    91   46  113 1    
    92   46  114 1    
    93   47   48 2    
    94   47   49 am   BACKBONE|DICT|INTERRES
    95   49   50 1    
    96   49  115 1    
    97   50   51 1    
    98   50   52 1    
    99   50  116 1    
   100   51  117 1    
   101   51  118 1    
   102   51  119 1    
   103   52   53 2    
   104   52   54 am   BACKBONE|DICT|INTERRES
   105   54   55 1    
   106   54  120 1    
   107   55   56 1    
   108   55   57 1    
   109   55  121 1    
   110   56  122 1    
   111   56  123 1    
   112   56  124 1    
   113   57   58 2    
   114   57   59 am   BACKBONE|DICT|INTERRES
   115   59   60 1    
   116   59  125 1    
   117   60   61 1    
   118   60   62 1    
   119   60  126 1    
   120   61  127 1    
   121   61  128 1    
   122   61  129 1    
   123   62   63 2    
   124   62   64 am   BACKBONE|DICT|INTERRES
   125   64   65 1    
   126   64  130 1    
   127   65   66 1    
   128   65   69 1    
   129   65  131 1    
   130   66   67 am   BACKBONE|DICT|INTERRES
   131   66   68 2    
   132   67  132 1    
   133   67  133 1    
   134   69   70 1    
   135   69  134 1    
   136   69  135 1    
   137   70   71 1    
   138   71  136 1    
   139   71  137 1    
@<TRIPOS>SUBSTRUCTURE
     1 UNK         1 GROUP             0       ****    0 ROOT    
