@<TRIPOS>MOLECULE
3R137
137   139    1
SMALL
USER_CHARGES


@<TRIPOS>ATOM
      1 CA         27.3427   -0.7326    2.1525 C.3       0 UNK        -0.2020 
      2 C          28.2273   -1.8512    1.6072 C.2       0 UNK         0.4855 
      3 O          28.4651   -2.8264    2.3165 O.2       0 UNK        -0.5197 
      4 N          28.7510   -1.7679    0.3750 N.am      1 UNK        -0.4892 
      5 CA         28.5427   -0.7157   -0.6308 C.3       1 UNK         0.0835 
      6 C6         29.4886   -0.8544   -1.8567 C.3       12 UNK        -0.0855 
      7 S7         31.2542   -1.0819   -1.4364 S.3       12 UNK        -0.2931 
      8 C8         31.4380   -2.8975   -1.3145 C.3       12 UNK         0.0378 
      9 C9         31.3973   -3.6033   -2.6637 C.ar      12 UNK        -0.0802 
     10 C10        32.5858   -3.8928   -3.3403 C.ar      12 UNK        -0.0944 
     11 C11        32.5621   -4.5918   -4.5512 C.ar      12 UNK        -0.0787 
     12 C12        31.3348   -4.9747   -5.1022 C.ar      12 UNK        -0.0862 
     13 C13        30.1380   -4.6811   -4.4409 C.ar      12 UNK        -0.0733 
     14 C14        30.1794   -4.0194   -3.2113 C.ar      12 UNK        -0.0832 
     15 C15        28.7993   -5.0973   -5.0367 C.3       12 UNK         0.0240 
     16 S16        28.4167   -4.2075   -6.5790 S.3       12 UNK        -0.2522 
     17 C17        28.3841   -2.4655   -6.0369 C.3       12 UNK        -0.0967 
     18 CA         27.5440   -1.6061   -7.0130 C.3       5 UNK         0.0660 
     19 N          26.1103   -1.8922   -6.9184 N.am      5 UNK        -0.4015 
     20 C          25.1992   -1.5184   -7.8267 C.2       4 UNK         0.4946 
     21 O          25.4675   -0.9016   -8.8584 O.2       4 UNK        -0.5353 
     22 CA         23.7343   -1.8598   -7.5071 C.3       4 UNK         0.0277 
     23 CB         23.4566   -3.3546   -7.7360 C.3       4 UNK        -0.1981 
     24 N          23.3500   -1.4854   -6.1427 N.am      4 UNK        -0.4209 
     25 C          23.3115   -0.2223   -5.6952 C.2       3 UNK         0.4942 
     26 O          23.5804    0.7572   -6.3866 O.2       3 UNK        -0.5208 
     27 CA         22.9400   -0.0035   -4.2209 C.3       3 UNK         0.0250 
     28 CB         21.4122    0.0075   -4.0505 C.3       3 UNK        -0.1990 
     29 N          23.5320   -0.9514   -3.2708 N.am      3 UNK        -0.4232 
     30 C          24.8282   -1.2803   -3.1750 C.2       2 UNK         0.4993 
     31 O          25.6934   -0.9709   -3.9987 O.2       2 UNK        -0.5286 
     32 CA         25.2097   -2.1373   -1.9568 C.3       2 UNK         0.0209 
     33 CB         25.0872   -3.6297   -2.3069 C.3       2 UNK        -0.1931 
     34 N          26.5673   -1.8795   -1.4689 N.am      2 UNK        -0.4546 
     35 C          27.0759   -0.6916   -1.1034 C.2       1 UNK         0.5154 
     36 O          26.4412    0.3631   -1.0764 O.2       1 UNK        -0.5181 
     37 C          27.8289   -0.1037   -6.8409 C.2       5 UNK         0.5014 
     38 O          28.6680    0.4303   -7.5672 O.2       5 UNK        -0.5248 
     39 N          27.1053    0.5580   -5.9260 N.am      6 UNK        -0.4434 
     40 CA         27.1669    2.0035   -5.7063 C.3       6 UNK         0.0363 
     41 CB         26.3449    2.3769   -4.4633 C.3       6 UNK        -0.1936 
     42 C          26.7129    2.8129   -6.9338 C.2       6 UNK         0.5081 
     43 O          27.4155    3.7426   -7.3289 O.2       6 UNK        -0.5248 
     44 N          25.5777    2.4315   -7.5394 N.am      7 UNK        -0.4718 
     45 CA         25.0335    3.0508   -8.7539 C.3       7 UNK         0.0273 
     46 CB         23.6142    2.5250   -9.0197 C.3       7 UNK        -0.1935 
     47 C          25.9222    2.8393   -9.9894 C.2       7 UNK         0.5018 
     48 O          26.0614    3.7590  -10.7966 O.2       7 UNK        -0.5186 
     49 N          26.5292    1.6495  -10.1015 N.am      8 UNK        -0.4240 
     50 CA         27.5142    1.3183  -11.1350 C.3       8 UNK         0.0235 
     51 CB         27.6930   -0.2084  -11.1828 C.3       8 UNK        -0.2000 
     52 C          28.8796    2.0028  -10.9295 C.2       8 UNK         0.4941 
     53 O          29.6761    2.0241  -11.8687 O.2       8 UNK        -0.5273 
     54 N          29.1366    2.5108   -9.7129 N.am      9 UNK        -0.4262 
     55 CA         30.4127    3.0329   -9.2088 C.3       9 UNK         0.0264 
     56 CB         30.8081    4.3357   -9.9356 C.3       9 UNK        -0.1955 
     57 C          31.5221    1.9619   -9.2276 C.2       9 UNK         0.5031 
     58 O          32.6737    2.2630   -9.5512 O.2       9 UNK        -0.5390 
     59 N          31.1441    0.7196   -8.9016 N.am      10 UNK        -0.4204 
     60 CA         32.0234   -0.4444   -8.8948 C.3       10 UNK         0.0237 
     61 CB         31.1700   -1.7205   -8.9847 C.3       10 UNK        -0.1985 
     62 C          32.8936   -0.4659   -7.6322 C.2       10 UNK         0.4970 
     63 O          32.4163   -0.1041   -6.5543 O.2       10 UNK        -0.4914 
     64 N          34.1382   -0.9294   -7.7965 N.am      11 UNK        -0.4285 
     65 CA         35.1186   -1.1819   -6.7246 C.3       11 UNK         0.1007 
     66 C          35.6290    0.0894   -5.9784 C.2       11 UNK         0.5703 
     67 N          35.4231    1.2921   -6.5027 N.am      11 UNK        -0.7361 
     68 O          36.2581   -0.0135   -4.9276 O.2       11 UNK        -0.4986 
     69 C69        34.6632   -2.3108   -5.7544 C.3       12 UNK        -0.0947 
     70 S70        34.2433   -3.8542   -6.6341 S.3       12 UNK        -0.2240 
     71 C71        33.8636   -4.9635   -5.2467 C.3       12 UNK         0.0194 
     72 H72        27.7208    0.2537    1.8882 H         1 UNK         0.0906 
     73 H73        27.3006   -0.7815    3.2404 H         1 UNK         0.0906 
     74 H74        26.3249   -0.8319    1.7763 H         1 UNK         0.0906 
     75 H75        29.3666   -2.5107    0.0840 H         1 UNK         0.3140 
     76 H76        28.7600    0.2454   -0.1607 H         1 UNK         0.1085 
     77 H77        29.4222    0.0525   -2.4615 H         1 UNK         0.0836 
     78 H78        29.1695   -1.6506   -2.5247 H         1 UNK         0.0836 
     79 H79        32.3912   -3.1063   -0.8261 H         1 UNK         0.0731 
     80 H80        30.6799   -3.3186   -0.6557 H         1 UNK         0.0731 
     81 H81        33.5329   -3.5912   -2.9138 H         1 UNK         0.1312 
     82 H82        31.3104   -5.5036   -6.0453 H         1 UNK         0.1406 
     83 H83        29.2580   -3.8358   -2.6787 H         1 UNK         0.1631 
     84 H84        27.9861   -4.9399   -4.3265 H         1 UNK         0.0717 
     85 H85        28.8196   -6.1679   -5.2448 H         1 UNK         0.0717 
     86 H86        27.9908   -2.3963   -5.0206 H         1 UNK         0.0934 
     87 H87        29.4180   -2.1160   -5.9892 H         1 UNK         0.0934 
     88 H88        27.8565   -1.8557   -8.0297 H         1 UNK         0.0739 
     89 H89        25.7968   -2.3369   -6.0682 H         1 UNK         0.3093 
     90 H90        23.1080   -1.2896   -8.1969 H         1 UNK         0.0818 
     91 H91        23.7285   -3.6494   -8.7507 H         1 UNK         0.0819 
     92 H92        24.0241   -3.9856   -7.0508 H         1 UNK         0.0819 
     93 H93        22.3990   -3.5853   -7.6069 H         1 UNK         0.0819 
     94 H94        23.1163   -2.2307   -5.5032 H         1 UNK         0.3041 
     95 H95        23.3109    0.9847   -3.9435 H         1 UNK         0.0784 
     96 H96        20.9476    0.7185   -4.7357 H         1 UNK         0.0793 
     97 H97        20.9751   -0.9715   -4.2513 H         1 UNK         0.0793 
     98 H98        21.1262    0.3030   -3.0409 H         1 UNK         0.0793 
     99 H99        22.9046   -1.2976   -2.5589 H         1 UNK         0.3024 
    100 H100       24.5240   -1.9042   -1.1393 H         1 UNK         0.1171 
    101 H101       24.0784   -3.8746   -2.6424 H         1 UNK         0.0786 
    102 H102       25.7735   -3.9133   -3.1062 H         1 UNK         0.0786 
    103 H103       25.2985   -4.2602   -1.4430 H         1 UNK         0.0786 
    104 H104       27.1730   -2.6833   -1.4093 H         1 UNK         0.2977 
    105 H105       26.4707    0.0285   -5.3293 H         1 UNK         0.3127 
    106 H106       28.2104    2.2587   -5.5095 H         1 UNK         0.0770 
    107 H107       25.2872    2.1534   -4.5982 H         1 UNK         0.0814 
    108 H108       26.4281    3.4427   -4.2470 H         1 UNK         0.0814 
    109 H109       26.6901    1.8372   -3.5810 H         1 UNK         0.0814 
    110 H110       25.0218    1.6839   -7.1276 H         1 UNK         0.2983 
    111 H111       24.9701    4.1268   -8.5776 H         1 UNK         0.0947 
    112 H112       23.1912    2.9735   -9.9196 H         1 UNK         0.0806 
    113 H113       22.9434    2.7627   -8.1940 H         1 UNK         0.0806 
    114 H114       23.6054    1.4426   -9.1567 H         1 UNK         0.0806 
    115 H115       26.3037    0.9193   -9.4324 H         1 UNK         0.3000 
    116 H116       27.1243    1.6492  -12.0999 H         1 UNK         0.0850 
    117 H117       28.3973   -0.4978  -11.9640 H         1 UNK         0.0810 
    118 H118       26.7497   -0.7123  -11.3943 H         1 UNK         0.0810 
    119 H119       28.0753   -0.5972  -10.2383 H         1 UNK         0.0810 
    120 H120       28.4099    2.4242   -9.0129 H         1 UNK         0.3040 
    121 H121       30.2446    3.2773   -8.1587 H         1 UNK         0.0766 
    122 H122       31.0514    4.1585  -10.9835 H         1 UNK         0.0812 
    123 H123       31.6844    4.7899   -9.4717 H         1 UNK         0.0812 
    124 H124       30.0035    5.0700   -9.8964 H         1 UNK         0.0812 
    125 H125       30.2028    0.5846   -8.5333 H         1 UNK         0.3205 
    126 H126       32.6673   -0.3968   -9.7759 H         1 UNK         0.0754 
    127 H127       31.7991   -2.6113   -9.0116 H         1 UNK         0.0769 
    128 H128       30.5571   -1.7267   -9.8863 H         1 UNK         0.0769 
    129 H129       30.5050   -1.8202   -8.1271 H         1 UNK         0.0769 
    130 H130       34.4408   -1.1890   -8.7239 H         1 UNK         0.2981 
    131 H131       36.0047   -1.5527   -7.2407 H         1 UNK         0.0541 
    132 H132       35.7686    2.1066   -6.0205 H         1 UNK         0.3459 
    133 H133       34.9098    1.3929   -7.3641 H         1 UNK         0.3459 
    134 H134       33.7990   -1.9882   -5.1719 H         1 UNK         0.0612 
    135 H135       35.4517   -2.5416   -5.0361 H         1 UNK         0.0612 
    136 H136       33.7919   -5.9840   -5.6257 H         1 UNK         0.0624 
    137 H137       34.6959   -4.9596   -4.5412 H         1 UNK         0.0624 
@<TRIPOS>BOND
     1    1    2 1    
     2    1   72 1    
     3    1   73 1    
     4    1   74 1    
     5    2    3 2    
     6    2    4 am   BACKBONE|DICT|INTERRES
     7    4    5 1    
     8    4   75 1    
     9    5    6 1    
    10    5   35 1    
    11    5   76 1    
    12    6    7 1    
    13    6   77 1    
    14    6   78 1    
    15    7    8 1    
    16    8    9 1    
    17    8   79 1    
    18    8   80 1    
    19    9   10 ar   
    20    9   14 ar   
    21   10   11 ar   
    22   10   81 1    
    23   11   12 ar   
    24   11   71 1    
    25   12   13 ar   
    26   12   82 1    
    27   13   14 ar   
    28   13   15 1    
    29   14   83 1    
    30   15   16 1    
    31   15   84 1    
    32   15   85 1    
    33   16   17 1    
    34   17   18 1    
    35   17   86 1    
    36   17   87 1    
    37   18   19 1    
    38   18   37 1    
    39   18   88 1    
    40   19   20 am   BACKBONE|DICT|INTERRES
    41   19   89 1    
    42   20   21 2    
    43   20   22 1    
    44   22   23 1    
    45   22   24 1    
    46   22   90 1    
    47   23   91 1    
    48   23   92 1    
    49   23   93 1    
    50   24   25 am   BACKBONE|DICT|INTERRES
    51   24   94 1    
    52   25   26 2    
    53   25   27 1    
    54   27   28 1    
    55   27   29 1    
    56   27   95 1    
    57   28   96 1    
    58   28   97 1    
    59   28   98 1    
    60   29   30 am   BACKBONE|DICT|INTERRES
    61   29   99 1    
    62   30   31 2    
    63   30   32 1    
    64   32   33 1    
    65   32   34 1    
    66   32  100 1    
    67   33  101 1    
    68   33  102 1    
    69   33  103 1    
    70   34   35 am   BACKBONE|DICT|INTERRES
    71   34  104 1    
    72   35   36 2    
    73   37   38 2    
    74   37   39 am   BACKBONE|DICT|INTERRES
    75   39   40 1    
    76   39  105 1    
    77   40   41 1    
    78   40   42 1    
    79   40  106 1    
    80   41  107 1    
    81   41  108 1    
    82   41  109 1    
    83   42   43 2    
    84   42   44 am   BACKBONE|DICT|INTERRES
    85   44   45 1    
    86   44  110 1    
    87   45   46 1    
    88   45   47 1    
    89   45  111 1    
    90   46  112 1    
    91   46  113 1    
    92   46  114 1    
    93   47   48 2    
    94   47   49 am   BACKBONE|DICT|INTERRES
    95   49   50 1    
    96   49  115 1    
    97   50   51 1    
    98   50   52 1    
    99   50  116 1    
   100   51  117 1    
   101   51  118 1    
   102   51  119 1    
   103   52   53 2    
   104   52   54 am   BACKBONE|DICT|INTERRES
   105   54   55 1    
   106   54  120 1    
   107   55   56 1    
   108   55   57 1    
   109   55  121 1    
   110   56  122 1    
   111   56  123 1    
   112   56  124 1    
   113   57   58 2    
   114   57   59 am   BACKBONE|DICT|INTERRES
   115   59   60 1    
   116   59  125 1    
   117   60   61 1    
   118   60   62 1    
   119   60  126 1    
   120   61  127 1    
   121   61  128 1    
   122   61  129 1    
   123   62   63 2    
   124   62   64 am   BACKBONE|DICT|INTERRES
   125   64   65 1    
   126   64  130 1    
   127   65   66 1    
   128   65   69 1    
   129   65  131 1    
   130   66   67 am   BACKBONE|DICT|INTERRES
   131   66   68 2    
   132   67  132 1    
   133   67  133 1    
   134   69   70 1    
   135   69  134 1    
   136   69  135 1    
   137   70   71 1    
   138   71  136 1    
   139   71  137 1    
@<TRIPOS>SUBSTRUCTURE
     1 UNK         1 GROUP             0       ****    0 ROOT    
