@<TRIPOS>MOLECULE
3R137
137   139    1
SMALL
USER_CHARGES


@<TRIPOS>ATOM
      1 CA         29.0511   -1.9153    0.4167 C.3       0 UNK        -0.2020 
      2 C          28.1532   -3.1266    0.6570 C.2       0 UNK         0.4855 
      3 O          27.9196   -3.4851    1.8092 O.2       0 UNK        -0.5197 
      4 N          27.6210   -3.7859   -0.3825 N.am      1 UNK        -0.4892 
      5 CA         27.7950   -3.4737   -1.8094 C.3       1 UNK         0.0835 
      6 C6         27.7710   -4.7493   -2.6888 C.3       12 UNK        -0.0855 
      7 S7         29.2709   -5.7639   -2.4385 S.3       12 UNK        -0.2931 
      8 C8         30.2310   -5.4329   -3.9570 C.3       12 UNK         0.0378 
      9 C9         30.9917   -4.1125   -3.8979 C.ar      12 UNK        -0.0802 
     10 C10        32.3718   -4.0930   -3.6658 C.ar      12 UNK        -0.0944 
     11 C11        33.0730   -2.8810   -3.6490 C.ar      12 UNK        -0.0787 
     12 C12        32.3808   -1.6813   -3.8309 C.ar      12 UNK        -0.0862 
     13 C13        31.0115   -1.6911   -4.0902 C.ar      12 UNK        -0.0733 
     14 C14        30.3257   -2.9064   -4.1260 C.ar      12 UNK        -0.0832 
     15 C15        30.2747   -0.3999   -4.3870 C.3       12 UNK         0.0240 
     16 S16        29.3035    0.1459   -2.9457 S.3       12 UNK        -0.2522 
     17 C17        28.1901    1.4508   -3.5840 C.3       12 UNK        -0.0967 
     18 CA         27.7907    1.3579   -5.0780 C.3       5 UNK         0.0660 
     19 N          27.1423    0.0862   -5.4283 N.am      5 UNK        -0.4015 
     20 C          26.9022   -0.3194   -6.6847 C.2       4 UNK         0.4946 
     21 O          27.1986    0.3405   -7.6795 O.2       4 UNK        -0.5353 
     22 CA         26.2021   -1.6697   -6.8795 C.3       4 UNK         0.0277 
     23 CB         27.2205   -2.8204   -6.8813 C.3       4 UNK        -0.1981 
     24 N          25.1874   -1.8972   -5.8521 N.am      4 UNK        -0.4209 
     25 C          23.9321   -1.4328   -5.9217 C.2       3 UNK         0.4942 
     26 O          23.4740   -0.8377   -6.8975 O.2       3 UNK        -0.5208 
     27 CA         23.0365   -1.6501   -4.6883 C.3       3 UNK         0.0250 
     28 CB         22.2909   -2.9901   -4.7942 C.3       3 UNK        -0.1990 
     29 N          23.7600   -1.5950   -3.4141 N.am      3 UNK        -0.4232 
     30 C          24.3943   -0.5111   -2.9468 C.2       2 UNK         0.4993 
     31 O          24.4535    0.5636   -3.5448 O.2       2 UNK        -0.5286 
     32 CA         25.1337   -0.6645   -1.6077 C.3       2 UNK         0.0209 
     33 CB         24.1523   -0.5280   -0.4326 C.3       2 UNK        -0.1931 
     34 N          25.9257   -1.8927   -1.4432 N.am      2 UNK        -0.4546 
     35 C          26.8043   -2.4044   -2.3205 C.2       1 UNK         0.5154 
     36 O          26.8843   -2.0394   -3.4942 O.2       1 UNK        -0.5181 
     37 C          26.9435    2.5747   -5.4928 C.2       5 UNK         0.5014 
     38 O          27.5104    3.5601   -5.9650 O.2       5 UNK        -0.5248 
     39 N          25.6110    2.4688   -5.3782 N.am      6 UNK        -0.4434 
     40 CA         24.6471    3.4661   -5.8569 C.3       6 UNK         0.0363 
     41 CB         23.2304    3.0346   -5.4454 C.3       6 UNK        -0.1936 
     42 C          24.7079    3.7152   -7.3774 C.2       6 UNK         0.5081 
     43 O          24.3995    4.8224   -7.8187 O.2       6 UNK        -0.5248 
     44 N          25.1134    2.6946   -8.1441 N.am      7 UNK        -0.4718 
     45 CA         25.3094    2.7560   -9.5940 C.3       7 UNK         0.0273 
     46 CB         24.8065    1.4337  -10.1991 C.3       7 UNK        -0.1935 
     47 C          26.7796    2.9982   -9.9886 C.2       7 UNK         0.5018 
     48 O          27.0486    3.1826  -11.1763 O.2       7 UNK        -0.5186 
     49 N          27.6993    2.9567   -9.0097 N.am      8 UNK        -0.4240 
     50 CA         29.1630    2.9324   -9.1480 C.3       8 UNK         0.0235 
     51 CB         29.6893    4.2917   -9.6542 C.3       8 UNK        -0.2000 
     52 C          29.6569    1.7376   -9.9938 C.2       8 UNK         0.4941 
     53 O          30.5868    1.8821  -10.7896 O.2       8 UNK        -0.5273 
     54 N          29.0001    0.5822   -9.8260 N.am      9 UNK        -0.4262 
     55 CA         29.1531   -0.6017  -10.6740 C.3       9 UNK         0.0264 
     56 CB         27.7926   -1.3151  -10.7629 C.3       9 UNK        -0.1955 
     57 C          30.2503   -1.5778  -10.2139 C.2       9 UNK         0.5031 
     58 O          30.5127   -2.5442  -10.9326 O.2       9 UNK        -0.5390 
     59 N          30.8641   -1.3436   -9.0476 N.am      10 UNK        -0.4204 
     60 CA         31.9052   -2.1947   -8.4731 C.3       10 UNK         0.0237 
     61 CB         31.2624   -3.2332   -7.5394 C.3       10 UNK        -0.1985 
     62 C          32.9338   -1.3343   -7.7319 C.2       10 UNK         0.4970 
     63 O          32.5616   -0.3139   -7.1480 O.2       10 UNK        -0.4914 
     64 N          34.1998   -1.7721   -7.7854 N.am      11 UNK        -0.4285 
     65 CA         35.3897   -1.1325   -7.1900 C.3       11 UNK         0.1007 
     66 C          35.6944    0.3097   -7.7058 C.2       11 UNK         0.5703 
     67 N          35.2047    0.7079   -8.8742 N.am      11 UNK        -0.7361 
     68 O          36.4141    1.0704   -7.0623 O.2       11 UNK        -0.4986 
     69 C69        35.4336   -1.2486   -5.6389 C.3       12 UNK        -0.0947 
     70 S70        35.4517   -2.9813   -5.0570 S.3       12 UNK        -0.2240 
     71 C71        34.5814   -2.8672   -3.4602 C.3       12 UNK         0.0194 
     72 H72        28.5440   -1.1571   -0.1787 H         1 UNK         0.0906 
     73 H73        29.3319   -1.4546    1.3636 H         1 UNK         0.0906 
     74 H74        29.9690   -2.2081   -0.0927 H         1 UNK         0.0906 
     75 H75        27.0485   -4.5961   -0.1893 H         1 UNK         0.3140 
     76 H76        28.7762   -3.0182   -1.9397 H         1 UNK         0.1085 
     77 H77        27.6838   -4.5117   -3.7501 H         1 UNK         0.0836 
     78 H78        26.8949   -5.3569   -2.4558 H         1 UNK         0.0836 
     79 H79        29.5738   -5.4473   -4.8277 H         1 UNK         0.0731 
     80 H80        30.9321   -6.2562   -4.1026 H         1 UNK         0.0731 
     81 H81        32.9059   -5.0218   -3.5189 H         1 UNK         0.1312 
     82 H82        32.9086   -0.7390   -3.8041 H         1 UNK         0.1406 
     83 H83        29.2686   -2.9055   -4.3385 H         1 UNK         0.1631 
     84 H84        29.6432   -0.5872   -5.2523 H         1 UNK         0.0717 
     85 H85        30.9698    0.3896   -4.6772 H         1 UNK         0.0717 
     86 H86        27.2963    1.4541   -2.9584 H         1 UNK         0.0934 
     87 H87        28.6850    2.4054   -3.3934 H         1 UNK         0.0934 
     88 H88        28.7025    1.4305   -5.6736 H         1 UNK         0.0739 
     89 H89        26.9237   -0.5428   -4.6600 H         1 UNK         0.3093 
     90 H90        25.7218   -1.6500   -7.8604 H         1 UNK         0.0818 
     91 H91        27.6833   -2.9528   -5.9059 H         1 UNK         0.0819 
     92 H92        26.7468   -3.7635   -7.1539 H         1 UNK         0.0819 
     93 H93        28.0206   -2.6401   -7.6006 H         1 UNK         0.0819 
     94 H94        25.5089   -2.3046   -4.9812 H         1 UNK         0.3041 
     95 H95        22.2962   -0.8470   -4.6804 H         1 UNK         0.0784 
     96 H96        21.7239   -3.0482   -5.7245 H         1 UNK         0.0793 
     97 H97        22.9773   -3.8377   -4.7774 H         1 UNK         0.0793 
     98 H98        21.5807   -3.1154   -3.9766 H         1 UNK         0.0793 
     99 H99        23.7831   -2.4387   -2.8598 H         1 UNK         0.3024 
    100 H100       25.8387    0.1666   -1.5470 H         1 UNK         0.1171 
    101 H101       24.6785   -0.4768    0.5208 H         1 UNK         0.0786 
    102 H102       23.5597    0.3841   -0.5207 H         1 UNK         0.0786 
    103 H103       23.4562   -1.3663   -0.3873 H         1 UNK         0.0786 
    104 H104       25.9236   -2.2984   -0.5180 H         1 UNK         0.2977 
    105 H105       25.2229    1.6544   -4.9054 H         1 UNK         0.3127 
    106 H106       24.8767    4.4118   -5.3618 H         1 UNK         0.0770 
    107 H107       22.9641    2.0678   -5.8755 H         1 UNK         0.0814 
    108 H108       22.4865    3.7590   -5.7796 H         1 UNK         0.0814 
    109 H109       23.1397    2.9540   -4.3620 H         1 UNK         0.0814 
    110 H110       25.3605    1.8211   -7.6972 H         1 UNK         0.2983 
    111 H111       24.7212    3.5725  -10.0187 H         1 UNK         0.0947 
    112 H112       24.9219    1.4265  -11.2839 H         1 UNK         0.0806 
    113 H113       23.7488    1.2783   -9.9859 H         1 UNK         0.0806 
    114 H114       25.3547    0.5768   -9.8057 H         1 UNK         0.0806 
    115 H115       27.3582    2.8214   -8.0663 H         1 UNK         0.3000 
    116 H116       29.5599    2.7771   -8.1436 H         1 UNK         0.0850 
    117 H117       30.7796    4.3188   -9.6393 H         1 UNK         0.0810 
    118 H118       29.3370    5.1105   -9.0269 H         1 UNK         0.0810 
    119 H119       29.3734    4.4927  -10.6783 H         1 UNK         0.0810 
    120 H120       28.2738    0.5384   -9.1104 H         1 UNK         0.3040 
    121 H121       29.4230   -0.2796  -11.6822 H         1 UNK         0.0766 
    122 H122       27.0318   -0.6598  -11.1868 H         1 UNK         0.0812 
    123 H123       27.4442   -1.6450   -9.7847 H         1 UNK         0.0812 
    124 H124       27.8491   -2.1960  -11.4037 H         1 UNK         0.0812 
    125 H125       30.6569   -0.4976   -8.5335 H         1 UNK         0.3205 
    126 H126       32.4308   -2.7210   -9.2732 H         1 UNK         0.0754 
    127 H127       32.0155   -3.7902   -6.9798 H         1 UNK         0.0769 
    128 H128       30.6706   -3.9559   -8.1012 H         1 UNK         0.0769 
    129 H129       30.6017   -2.7551   -6.8185 H         1 UNK         0.0769 
    130 H130       34.3898   -2.6234   -8.2935 H         1 UNK         0.2981 
    131 H131       36.2322   -1.7147   -7.5648 H         1 UNK         0.0541 
    132 H132       34.6231    0.0957   -9.4226 H         1 UNK         0.3459 
    133 H133       35.4154    1.6360   -9.2053 H         1 UNK         0.3459 
    134 H134       34.5969   -0.7061   -5.2047 H         1 UNK         0.0612 
    135 H135       36.3349   -0.7796   -5.2409 H         1 UNK         0.0612 
    136 H136       34.8968   -1.9675   -2.9296 H         1 UNK         0.0624 
    137 H137       34.8821   -3.7105   -2.8369 H         1 UNK         0.0624 
@<TRIPOS>BOND
     1    1    2 1    
     2    1   72 1    
     3    1   73 1    
     4    1   74 1    
     5    2    3 2    
     6    2    4 am   BACKBONE|DICT|INTERRES
     7    4    5 1    
     8    4   75 1    
     9    5    6 1    
    10    5   35 1    
    11    5   76 1    
    12    6    7 1    
    13    6   77 1    
    14    6   78 1    
    15    7    8 1    
    16    8    9 1    
    17    8   79 1    
    18    8   80 1    
    19    9   10 ar   
    20    9   14 ar   
    21   10   11 ar   
    22   10   81 1    
    23   11   12 ar   
    24   11   71 1    
    25   12   13 ar   
    26   12   82 1    
    27   13   14 ar   
    28   13   15 1    
    29   14   83 1    
    30   15   16 1    
    31   15   84 1    
    32   15   85 1    
    33   16   17 1    
    34   17   18 1    
    35   17   86 1    
    36   17   87 1    
    37   18   19 1    
    38   18   37 1    
    39   18   88 1    
    40   19   20 am   BACKBONE|DICT|INTERRES
    41   19   89 1    
    42   20   21 2    
    43   20   22 1    
    44   22   23 1    
    45   22   24 1    
    46   22   90 1    
    47   23   91 1    
    48   23   92 1    
    49   23   93 1    
    50   24   25 am   BACKBONE|DICT|INTERRES
    51   24   94 1    
    52   25   26 2    
    53   25   27 1    
    54   27   28 1    
    55   27   29 1    
    56   27   95 1    
    57   28   96 1    
    58   28   97 1    
    59   28   98 1    
    60   29   30 am   BACKBONE|DICT|INTERRES
    61   29   99 1    
    62   30   31 2    
    63   30   32 1    
    64   32   33 1    
    65   32   34 1    
    66   32  100 1    
    67   33  101 1    
    68   33  102 1    
    69   33  103 1    
    70   34   35 am   BACKBONE|DICT|INTERRES
    71   34  104 1    
    72   35   36 2    
    73   37   38 2    
    74   37   39 am   BACKBONE|DICT|INTERRES
    75   39   40 1    
    76   39  105 1    
    77   40   41 1    
    78   40   42 1    
    79   40  106 1    
    80   41  107 1    
    81   41  108 1    
    82   41  109 1    
    83   42   43 2    
    84   42   44 am   BACKBONE|DICT|INTERRES
    85   44   45 1    
    86   44  110 1    
    87   45   46 1    
    88   45   47 1    
    89   45  111 1    
    90   46  112 1    
    91   46  113 1    
    92   46  114 1    
    93   47   48 2    
    94   47   49 am   BACKBONE|DICT|INTERRES
    95   49   50 1    
    96   49  115 1    
    97   50   51 1    
    98   50   52 1    
    99   50  116 1    
   100   51  117 1    
   101   51  118 1    
   102   51  119 1    
   103   52   53 2    
   104   52   54 am   BACKBONE|DICT|INTERRES
   105   54   55 1    
   106   54  120 1    
   107   55   56 1    
   108   55   57 1    
   109   55  121 1    
   110   56  122 1    
   111   56  123 1    
   112   56  124 1    
   113   57   58 2    
   114   57   59 am   BACKBONE|DICT|INTERRES
   115   59   60 1    
   116   59  125 1    
   117   60   61 1    
   118   60   62 1    
   119   60  126 1    
   120   61  127 1    
   121   61  128 1    
   122   61  129 1    
   123   62   63 2    
   124   62   64 am   BACKBONE|DICT|INTERRES
   125   64   65 1    
   126   64  130 1    
   127   65   66 1    
   128   65   69 1    
   129   65  131 1    
   130   66   67 am   BACKBONE|DICT|INTERRES
   131   66   68 2    
   132   67  132 1    
   133   67  133 1    
   134   69   70 1    
   135   69  134 1    
   136   69  135 1    
   137   70   71 1    
   138   71  136 1    
   139   71  137 1    
@<TRIPOS>SUBSTRUCTURE
     1 UNK         1 GROUP             0       ****    0 ROOT    
