@<TRIPOS>MOLECULE
3R137
137   139    1
SMALL
USER_CHARGES


@<TRIPOS>ATOM
      1 CA         23.8762   -5.4407   -1.9568 C.3       0 UNK        -0.2020 
      2 C          25.1501   -4.6488   -2.2121 C.2       0 UNK         0.4855 
      3 O          25.7100   -4.7448   -3.3024 O.2       0 UNK        -0.5197 
      4 N          25.6006   -3.8815   -1.2091 N.am      1 UNK        -0.4892 
      5 CA         26.7654   -2.9875   -1.2163 C.3       1 UNK         0.0835 
      6 C6         28.0811   -3.6794   -1.6531 C.3       12 UNK        -0.0855 
      7 S7         29.5633   -2.8381   -1.0044 S.3       12 UNK        -0.2931 
      8 C8         30.8688   -4.0065   -1.5006 C.3       12 UNK         0.0378 
      9 C9         31.1142   -3.9708   -3.0021 C.ar      12 UNK        -0.0802 
     10 C10        32.0513   -3.0855   -3.5403 C.ar      12 UNK        -0.0944 
     11 C11        32.2780   -3.0391   -4.9195 C.ar      12 UNK        -0.0787 
     12 C12        31.5543   -3.8890   -5.7639 C.ar      12 UNK        -0.0862 
     13 C13        30.6175   -4.7846   -5.2353 C.ar      12 UNK        -0.0733 
     14 C14        30.4107   -4.8266   -3.8537 C.ar      12 UNK        -0.0832 
     15 C15        29.8465   -5.7328   -6.1450 C.3       12 UNK         0.0240 
     16 S16        28.6635   -4.8774   -7.2336 S.3       12 UNK        -0.2522 
     17 C17        27.4812   -4.1322   -6.0535 C.3       12 UNK        -0.0967 
     18 CA         26.8540   -2.8322   -6.6142 C.3       5 UNK         0.0660 
     19 N          25.6475   -2.4320   -5.8908 N.am      5 UNK        -0.4015 
     20 C          24.4902   -2.1221   -6.4868 C.2       4 UNK         0.4946 
     21 O          24.2791   -2.2437   -7.6950 O.2       4 UNK        -0.5353 
     22 CA         23.3661   -1.5653   -5.5966 C.3       4 UNK         0.0277 
     23 CB         22.7957   -2.6653   -4.6866 C.3       4 UNK        -0.1981 
     24 N          23.6843   -0.3840   -4.7827 N.am      4 UNK        -0.4209 
     25 C          24.4521    0.6731   -5.0941 C.2       3 UNK         0.4942 
     26 O          25.2005    0.7382   -6.0677 O.2       3 UNK        -0.5208 
     27 CA         24.3666    1.8901   -4.1512 C.3       3 UNK         0.0250 
     28 CB         23.4528    2.9612   -4.7683 C.3       3 UNK        -0.1990 
     29 N          23.8554    1.5502   -2.8167 N.am      3 UNK        -0.4232 
     30 C          24.5158    0.9558   -1.8120 C.2       2 UNK         0.4993 
     31 O          23.9414    0.6262   -0.7739 O.2       2 UNK        -0.5286 
     32 CA         26.0330    0.7179   -1.9190 C.3       2 UNK         0.0209 
     33 CB         26.8022    1.8271   -1.1825 C.3       2 UNK        -0.1931 
     34 N          26.3730   -0.5738   -1.3287 N.am      2 UNK        -0.4546 
     35 C          26.4809   -1.7081   -2.0291 C.2       1 UNK         0.5154 
     36 O          26.3782   -1.7569   -3.2590 O.2       1 UNK        -0.5181 
     37 C          27.8644   -1.6749   -6.6409 C.2       5 UNK         0.5014 
     38 O          28.4689   -1.4456   -7.6875 O.2       5 UNK        -0.5248 
     39 N          28.0432   -0.9599   -5.5193 N.am      6 UNK        -0.4434 
     40 CA         29.1339    0.0078   -5.3589 C.3       6 UNK         0.0363 
     41 CB         29.2319    0.4765   -3.9009 C.3       6 UNK        -0.1936 
     42 C          29.0881    1.2127   -6.3154 C.2       6 UNK         0.5081 
     43 O          30.1491    1.6963   -6.7151 O.2       6 UNK        -0.5248 
     44 N          27.8832    1.6699   -6.6861 N.am      7 UNK        -0.4718 
     45 CA         27.6994    2.7424   -7.6685 C.3       7 UNK         0.0273 
     46 CB         26.3623    3.4583   -7.4224 C.3       7 UNK        -0.1935 
     47 C          27.7745    2.2205   -9.1121 C.2       7 UNK         0.5018 
     48 O          28.2098    2.9618   -9.9924 O.2       7 UNK        -0.5186 
     49 N          27.3754    0.9586   -9.3306 N.am      8 UNK        -0.4240 
     50 CA         27.4483    0.2739  -10.6250 C.3       8 UNK         0.0235 
     51 CB         26.5572   -0.9792  -10.6026 C.3       8 UNK        -0.2000 
     52 C          28.8955   -0.0819  -11.0023 C.2       8 UNK         0.4941 
     53 O          29.2990    0.1384  -12.1444 O.2       8 UNK        -0.5273 
     54 N          29.6590   -0.5842  -10.0222 N.am      9 UNK        -0.4262 
     55 CA         31.0995   -0.8347  -10.1133 C.3       9 UNK         0.0264 
     56 CB         31.5155   -1.7551   -8.9536 C.3       9 UNK        -0.1955 
     57 C          31.9378    0.4572  -10.0938 C.2       9 UNK         0.5031 
     58 O          33.1018    0.4201  -10.4944 O.2       9 UNK        -0.5390 
     59 N          31.3378    1.5589   -9.6175 N.am      10 UNK        -0.4204 
     60 CA         31.9070    2.9001   -9.4465 C.3       10 UNK         0.0237 
     61 CB         32.2832    3.5216  -10.8084 C.3       10 UNK        -0.1985 
     62 C          33.0552    2.9519   -8.4192 C.2       10 UNK         0.4970 
     63 O          33.9277    3.8165   -8.5221 O.2       10 UNK        -0.4914 
     64 N          33.0243    2.0416   -7.4387 N.am      11 UNK        -0.4285 
     65 CA         33.9370    2.0170   -6.2891 C.3       11 UNK         0.1007 
     66 C          33.4591    2.9157   -5.1118 C.2       11 UNK         0.5703 
     67 N          32.1876    3.2992   -5.0477 N.am      11 UNK        -0.7361 
     68 O          34.2604    3.2850   -4.2565 O.2       11 UNK        -0.4986 
     69 C69        34.2519    0.5654   -5.8394 C.3       12 UNK        -0.0947 
     70 S70        32.7829   -0.3536   -5.2760 S.3       12 UNK        -0.2240 
     71 C71        33.3155   -2.0771   -5.4820 C.3       12 UNK         0.0194 
     72 H72        23.4530   -5.2325   -0.9743 H         1 UNK         0.0906 
     73 H73        23.1250   -5.1965   -2.7074 H         1 UNK         0.0906 
     74 H74        24.0822   -6.5089   -2.0184 H         1 UNK         0.0906 
     75 H75        25.0652   -3.8590   -0.3516 H         1 UNK         0.3140 
     76 H76        26.8882   -2.6971   -0.1712 H         1 UNK         0.1085 
     77 H77        28.1431   -3.7426   -2.7395 H         1 UNK         0.0836 
     78 H78        28.0978   -4.7071   -1.2870 H         1 UNK         0.0836 
     79 H79        30.6046   -5.0152   -1.1789 H         1 UNK         0.0731 
     80 H80        31.7878   -3.7515   -0.9705 H         1 UNK         0.0731 
     81 H81        32.6017   -2.4230   -2.8860 H         1 UNK         0.1312 
     82 H82        31.7200   -3.8605   -6.8318 H         1 UNK         0.1406 
     83 H83        29.6933   -5.5218   -3.4390 H         1 UNK         0.1631 
     84 H84        29.3086   -6.4826   -5.5627 H         1 UNK         0.0717 
     85 H85        30.5561   -6.2823   -6.7651 H         1 UNK         0.0717 
     86 H86        26.6998   -4.8705   -5.8666 H         1 UNK         0.0934 
     87 H87        27.9566   -3.9503   -5.0894 H         1 UNK         0.0934 
     88 H88        26.5936   -3.0331   -7.6555 H         1 UNK         0.0739 
     89 H89        25.7453   -2.2887   -4.8868 H         1 UNK         0.3093 
     90 H90        22.5670   -1.2541   -6.2722 H         1 UNK         0.0818 
     91 H91        21.8603   -2.3533   -4.2220 H         1 UNK         0.0819 
     92 H92        22.5876   -3.5770   -5.2488 H         1 UNK         0.0819 
     93 H93        23.4946   -2.9226   -3.8916 H         1 UNK         0.0819 
     94 H94        23.1487   -0.3037   -3.9313 H         1 UNK         0.3041 
     95 H95        25.3614    2.3309   -4.0669 H         1 UNK         0.0784 
     96 H96        23.8031    3.2539   -5.7589 H         1 UNK         0.0793 
     97 H97        22.4276    2.6057   -4.8802 H         1 UNK         0.0793 
     98 H98        23.4303    3.8637   -4.1570 H         1 UNK         0.0793 
     99 H99        22.8748    1.7441   -2.6709 H         1 UNK         0.3024 
    100 H100       26.3503    0.7140   -2.9588 H         1 UNK         0.1171 
    101 H101       27.8786    1.6584   -1.2212 H         1 UNK         0.0786 
    102 H102       26.6100    2.8008   -1.6351 H         1 UNK         0.0786 
    103 H103       26.5130    1.8927   -0.1327 H         1 UNK         0.0786 
    104 H104       26.4162   -0.6052   -0.3200 H         1 UNK         0.2977 
    105 H105       27.4972   -1.1905   -4.6939 H         1 UNK         0.3127 
    106 H106       30.0434   -0.5451   -5.5907 H         1 UNK         0.0770 
    107 H107       28.4309    1.1678   -3.6472 H         1 UNK         0.0814 
    108 H108       30.1718    1.0047   -3.7347 H         1 UNK         0.0814 
    109 H109       29.2054   -0.3607   -3.2028 H         1 UNK         0.0814 
    110 H110       27.0409    1.2140   -6.3426 H         1 UNK         0.2983 
    111 H111       28.4968    3.4785   -7.5408 H         1 UNK         0.0947 
    112 H112       26.2665    4.3310   -8.0698 H         1 UNK         0.0806 
    113 H113       26.2810    3.8073   -6.3930 H         1 UNK         0.0806 
    114 H114       25.5105    2.8101   -7.6292 H         1 UNK         0.0806 
    115 H115       27.0737    0.4087   -8.5382 H         1 UNK         0.3000 
    116 H116       27.0609    0.9510  -11.3896 H         1 UNK         0.0850 
    117 H117       26.5616   -1.4759  -11.5737 H         1 UNK         0.0810 
    118 H118       25.5219   -0.7267  -10.3722 H         1 UNK         0.0810 
    119 H119       26.8935   -1.7076   -9.8644 H         1 UNK         0.0810 
    120 H120       29.2169   -0.8091   -9.1285 H         1 UNK         0.3040 
    121 H121       31.3020   -1.3485  -11.0553 H         1 UNK         0.0766 
    122 H122       31.3279   -1.2909   -7.9841 H         1 UNK         0.0812 
    123 H123       32.5787   -1.9934   -9.0029 H         1 UNK         0.0812 
    124 H124       30.9679   -2.6975   -8.9810 H         1 UNK         0.0812 
    125 H125       30.3888    1.4529   -9.2873 H         1 UNK         0.3205 
    126 H126       31.1057    3.5068   -9.0220 H         1 UNK         0.0754 
    127 H127       32.5592    4.5710  -10.6979 H         1 UNK         0.0769 
    128 H128       31.4460    3.4804  -11.5055 H         1 UNK         0.0769 
    129 H129       33.1293    3.0099  -11.2681 H         1 UNK         0.0769 
    130 H130       32.2199    1.4305   -7.3737 H         1 UNK         0.2981 
    131 H131       34.8890    2.4438   -6.6101 H         1 UNK         0.0541 
    132 H132       31.8865    3.8891   -4.2893 H         1 UNK         0.3459 
    133 H133       31.5152    2.9415   -5.7150 H         1 UNK         0.3459 
    134 H134       34.9911    0.5640   -5.0365 H         1 UNK         0.0612 
    135 H135       34.7072    0.0210   -6.6682 H         1 UNK         0.0612 
    136 H136       33.4980   -2.2734   -6.5394 H         1 UNK         0.0624 
    137 H137       34.2645   -2.2267   -4.9651 H         1 UNK         0.0624 
@<TRIPOS>BOND
     1    1    2 1    
     2    1   72 1    
     3    1   73 1    
     4    1   74 1    
     5    2    3 2    
     6    2    4 am   BACKBONE|DICT|INTERRES
     7    4    5 1    
     8    4   75 1    
     9    5    6 1    
    10    5   35 1    
    11    5   76 1    
    12    6    7 1    
    13    6   77 1    
    14    6   78 1    
    15    7    8 1    
    16    8    9 1    
    17    8   79 1    
    18    8   80 1    
    19    9   10 ar   
    20    9   14 ar   
    21   10   11 ar   
    22   10   81 1    
    23   11   12 ar   
    24   11   71 1    
    25   12   13 ar   
    26   12   82 1    
    27   13   14 ar   
    28   13   15 1    
    29   14   83 1    
    30   15   16 1    
    31   15   84 1    
    32   15   85 1    
    33   16   17 1    
    34   17   18 1    
    35   17   86 1    
    36   17   87 1    
    37   18   19 1    
    38   18   37 1    
    39   18   88 1    
    40   19   20 am   BACKBONE|DICT|INTERRES
    41   19   89 1    
    42   20   21 2    
    43   20   22 1    
    44   22   23 1    
    45   22   24 1    
    46   22   90 1    
    47   23   91 1    
    48   23   92 1    
    49   23   93 1    
    50   24   25 am   BACKBONE|DICT|INTERRES
    51   24   94 1    
    52   25   26 2    
    53   25   27 1    
    54   27   28 1    
    55   27   29 1    
    56   27   95 1    
    57   28   96 1    
    58   28   97 1    
    59   28   98 1    
    60   29   30 am   BACKBONE|DICT|INTERRES
    61   29   99 1    
    62   30   31 2    
    63   30   32 1    
    64   32   33 1    
    65   32   34 1    
    66   32  100 1    
    67   33  101 1    
    68   33  102 1    
    69   33  103 1    
    70   34   35 am   BACKBONE|DICT|INTERRES
    71   34  104 1    
    72   35   36 2    
    73   37   38 2    
    74   37   39 am   BACKBONE|DICT|INTERRES
    75   39   40 1    
    76   39  105 1    
    77   40   41 1    
    78   40   42 1    
    79   40  106 1    
    80   41  107 1    
    81   41  108 1    
    82   41  109 1    
    83   42   43 2    
    84   42   44 am   BACKBONE|DICT|INTERRES
    85   44   45 1    
    86   44  110 1    
    87   45   46 1    
    88   45   47 1    
    89   45  111 1    
    90   46  112 1    
    91   46  113 1    
    92   46  114 1    
    93   47   48 2    
    94   47   49 am   BACKBONE|DICT|INTERRES
    95   49   50 1    
    96   49  115 1    
    97   50   51 1    
    98   50   52 1    
    99   50  116 1    
   100   51  117 1    
   101   51  118 1    
   102   51  119 1    
   103   52   53 2    
   104   52   54 am   BACKBONE|DICT|INTERRES
   105   54   55 1    
   106   54  120 1    
   107   55   56 1    
   108   55   57 1    
   109   55  121 1    
   110   56  122 1    
   111   56  123 1    
   112   56  124 1    
   113   57   58 2    
   114   57   59 am   BACKBONE|DICT|INTERRES
   115   59   60 1    
   116   59  125 1    
   117   60   61 1    
   118   60   62 1    
   119   60  126 1    
   120   61  127 1    
   121   61  128 1    
   122   61  129 1    
   123   62   63 2    
   124   62   64 am   BACKBONE|DICT|INTERRES
   125   64   65 1    
   126   64  130 1    
   127   65   66 1    
   128   65   69 1    
   129   65  131 1    
   130   66   67 am   BACKBONE|DICT|INTERRES
   131   66   68 2    
   132   67  132 1    
   133   67  133 1    
   134   69   70 1    
   135   69  134 1    
   136   69  135 1    
   137   70   71 1    
   138   71  136 1    
   139   71  137 1    
@<TRIPOS>SUBSTRUCTURE
     1 UNK         1 GROUP             0       ****    0 ROOT    
