@<TRIPOS>MOLECULE
3R137
137   139    1
SMALL
USER_CHARGES


@<TRIPOS>ATOM
      1 CA         24.2496   -6.5086   -3.5202 C.3       0 UNK        -0.2020 
      2 C          25.2899   -5.5148   -3.0281 C.2       0 UNK         0.4855 
      3 O          25.4956   -4.4813   -3.6646 O.2       0 UNK        -0.5197 
      4 N          25.9469   -5.8120   -1.8978 N.am      1 UNK        -0.4892 
      5 CA         26.9580   -4.9632   -1.2507 C.3       1 UNK         0.0835 
      6 C6         28.2414   -4.8165   -2.1272 C.3       12 UNK        -0.0855 
      7 S7         29.7966   -4.9639   -1.1816 S.3       12 UNK        -0.2931 
      8 C8         30.2873   -3.2395   -0.8147 C.3       12 UNK         0.0378 
      9 C9         30.4835   -2.3046   -2.0124 C.ar      12 UNK        -0.0802 
     10 C10        30.6512   -2.7681   -3.3242 C.ar      12 UNK        -0.0944 
     11 C11        30.8536   -1.8719   -4.3771 C.ar      12 UNK        -0.0787 
     12 C12        30.9219   -0.5013   -4.1154 C.ar      12 UNK        -0.0862 
     13 C13        30.7637   -0.0184   -2.8121 C.ar      12 UNK        -0.0733 
     14 C14        30.5418   -0.9274   -1.7722 C.ar      12 UNK        -0.0832 
     15 C15        30.8623    1.4738   -2.4936 C.3       12 UNK         0.0240 
     16 S16        30.0452    2.5758   -3.6999 S.3       12 UNK        -0.2522 
     17 C17        28.3669    1.8726   -3.7990 C.3       12 UNK        -0.0967 
     18 CA         28.0268    1.3977   -5.2391 C.3       5 UNK         0.0660 
     19 N          27.3685    0.0884   -5.2406 N.am      5 UNK        -0.4015 
     20 C          27.1063   -0.6396   -6.3359 C.2       4 UNK         0.4946 
     21 O          27.4024   -0.2862   -7.4761 O.2       4 UNK        -0.5353 
     22 CA         26.3291   -1.9537   -6.1459 C.3       4 UNK         0.0277 
     23 CB         27.3099   -3.1342   -6.0631 C.3       4 UNK        -0.1981 
     24 N          25.4424   -1.9688   -4.9764 N.am      4 UNK        -0.4209 
     25 C          24.4553   -1.0914   -4.7350 C.2       3 UNK         0.4942 
     26 O          24.1567   -0.1720   -5.4975 O.2       3 UNK        -0.5208 
     27 CA         23.7398   -1.2072   -3.3781 C.3       3 UNK         0.0250 
     28 CB         22.6588   -2.2988   -3.4122 C.3       3 UNK        -0.1990 
     29 N          24.6715   -1.4572   -2.2731 N.am      3 UNK        -0.4232 
     30 C          25.6456   -0.6207   -1.8875 C.2       2 UNK         0.4993 
     31 O          25.8237    0.4861   -2.3940 O.2       2 UNK        -0.5286 
     32 CA         26.6294   -1.1039   -0.8065 C.3       2 UNK         0.0209 
     33 CB         26.1070   -0.8061    0.6123 C.3       2 UNK        -0.1931 
     34 N          27.0432   -2.5058   -0.9715 N.am      2 UNK        -0.4546 
     35 C          26.3234   -3.6234   -0.7995 C.2       1 UNK         0.5154 
     36 O          25.1718   -3.6223   -0.3566 O.2       1 UNK        -0.5181 
     37 C          27.2276    2.4713   -6.0104 C.2       5 UNK         0.5014 
     38 O          27.8327    3.3820   -6.5773 O.2       5 UNK        -0.5248 
     39 N          25.8910    2.3406   -6.0411 N.am      6 UNK        -0.4434 
     40 CA         25.0025    3.2074   -6.8173 C.3       6 UNK         0.0363 
     41 CB         23.5722    3.1065   -6.2637 C.3       6 UNK        -0.1936 
     42 C          25.0250    2.8843   -8.3219 C.2       6 UNK         0.5081 
     43 O          24.7202    3.7683   -9.1232 O.2       6 UNK        -0.5248 
     44 N          25.3807    1.6431   -8.6862 N.am      7 UNK        -0.4718 
     45 CA         25.5717    1.2201  -10.0737 C.3       7 UNK         0.0273 
     46 CB         25.3596   -0.2980  -10.2037 C.3       7 UNK        -0.1935 
     47 C          26.9577    1.6424  -10.5819 C.2       7 UNK         0.5018 
     48 O          27.0437    2.2640  -11.6420 O.2       7 UNK        -0.5186 
     49 N          28.0072    1.3350   -9.8079 N.am      8 UNK        -0.4240 
     50 CA         29.3818    1.7500  -10.0707 C.3       8 UNK         0.0235 
     51 CB         30.0043    0.9014  -11.1984 C.3       8 UNK        -0.2000 
     52 C          30.1985    1.6104   -8.7855 C.2       8 UNK         0.4941 
     53 O          30.3024    0.5038   -8.2566 O.2       8 UNK        -0.5273 
     54 N          30.8338    2.7028   -8.3411 N.am      9 UNK        -0.4262 
     55 CA         31.7310    2.7144   -7.1774 C.3       9 UNK         0.0264 
     56 CB         32.0793    4.1651   -6.8100 C.3       9 UNK        -0.1955 
     57 C          33.0085    1.8741   -7.3704 C.2       9 UNK         0.5031 
     58 O          33.5757    1.3995   -6.3868 O.2       9 UNK        -0.5390 
     59 N          33.4159    1.6831   -8.6331 N.am      10 UNK        -0.4204 
     60 CA         34.4899    0.7787   -9.0505 C.3       10 UNK         0.0237 
     61 CB         35.0364    1.2587  -10.4066 C.3       10 UNK        -0.1985 
     62 C          34.0500   -0.6986   -9.1347 C.2       10 UNK         0.4970 
     63 O          34.9016   -1.5521   -9.3856 O.2       10 UNK        -0.4914 
     64 N          32.7503   -0.9763   -8.9512 N.am      11 UNK        -0.4285 
     65 CA         32.1167   -2.3056   -8.9911 C.3       11 UNK         0.1007 
     66 C          32.0482   -2.9602  -10.4038 C.2       11 UNK         0.5703 
     67 N          32.3110   -2.2358  -11.4855 N.am      11 UNK        -0.7361 
     68 O          31.7179   -4.1373  -10.5289 O.2       11 UNK        -0.4986 
     69 C69        32.6454   -3.2877   -7.9023 C.3       12 UNK        -0.0947 
     70 S70        32.7629   -2.5704   -6.2282 S.3       12 UNK        -0.2240 
     71 C71        31.0087   -2.3847   -5.7984 C.3       12 UNK         0.0194 
     72 H72        23.2679   -6.0368   -3.5517 H         1 UNK         0.0906 
     73 H73        24.1856   -7.3856   -2.8766 H         1 UNK         0.0906 
     74 H74        24.4995   -6.8429   -4.5267 H         1 UNK         0.0906 
     75 H75        25.7085   -6.6568   -1.3965 H         1 UNK         0.3140 
     76 H76        27.2225   -5.4849   -0.3294 H         1 UNK         0.1085 
     77 H77        28.2272   -3.9285   -2.7593 H         1 UNK         0.0836 
     78 H78        28.2820   -5.6388   -2.8437 H         1 UNK         0.0836 
     79 H79        31.2331   -3.2803   -0.2727 H         1 UNK         0.0731 
     80 H80        29.5696   -2.8116   -0.1145 H         1 UNK         0.0731 
     81 H81        30.6340   -3.8273   -3.5376 H         1 UNK         0.1312 
     82 H82        31.1068    0.1860   -4.9297 H         1 UNK         0.1406 
     83 H83        30.4356   -0.5605   -0.7597 H         1 UNK         0.1631 
     84 H84        31.9167    1.7463   -2.4349 H         1 UNK         0.0717 
     85 H85        30.4363    1.6811   -1.5106 H         1 UNK         0.0717 
     86 H86        28.3043    1.0440   -3.0940 H         1 UNK         0.0934 
     87 H87        27.6504    2.6067   -3.4237 H         1 UNK         0.0934 
     88 H88        28.9549    1.2488   -5.7954 H         1 UNK         0.0739 
     89 H89        27.0341   -0.2457   -4.3483 H         1 UNK         0.3093 
     90 H90        25.7026   -2.0881   -7.0299 H         1 UNK         0.0818 
     91 H91        27.9854   -3.1433   -6.9199 H         1 UNK         0.0819 
     92 H92        27.9229   -3.0860   -5.1626 H         1 UNK         0.0819 
     93 H93        26.7828   -4.0883   -6.0590 H         1 UNK         0.0819 
     94 H94        25.5556   -2.7541   -4.3367 H         1 UNK         0.3041 
     95 H95        23.2493   -0.2509   -3.1839 H         1 UNK         0.0784 
     96 H96        21.9391   -2.1082   -4.2096 H         1 UNK         0.0793 
     97 H97        23.0830   -3.2875   -3.5868 H         1 UNK         0.0793 
     98 H98        22.1020   -2.3344   -2.4756 H         1 UNK         0.0793 
     99 H99        24.6005   -2.3479   -1.7912 H         1 UNK         0.3024 
    100 H100       27.5386   -0.5149   -0.9406 H         1 UNK         0.1171 
    101 H101       26.8216   -1.1217    1.3725 H         1 UNK         0.0786 
    102 H102       25.9436    0.2641    0.7455 H         1 UNK         0.0786 
    103 H103       25.1578   -1.3017    0.8164 H         1 UNK         0.0786 
    104 H104       27.9653   -2.6259   -1.3675 H         1 UNK         0.2977 
    105 H105       25.4576    1.5458   -5.5831 H         1 UNK         0.3127 
    106 H106       25.3373    4.2401   -6.6969 H         1 UNK         0.0770 
    107 H107       23.1540    2.1088   -6.4003 H         1 UNK         0.0814 
    108 H108       22.9094    3.8069   -6.7734 H         1 UNK         0.0814 
    109 H109       23.5382    3.3434   -5.2003 H         1 UNK         0.0814 
    110 H110       25.6717    0.9895   -7.9705 H         1 UNK         0.2983 
    111 H111       24.8223    1.7117  -10.6986 H         1 UNK         0.0947 
    112 H112       26.0953   -0.8697   -9.6387 H         1 UNK         0.0806 
    113 H113       25.4408   -0.6104  -11.2456 H         1 UNK         0.0806 
    114 H114       24.3692   -0.5904   -9.8545 H         1 UNK         0.0806 
    115 H115       27.8632    0.8008   -8.9501 H         1 UNK         0.3000 
    116 H116       29.3776    2.7986  -10.3761 H         1 UNK         0.0850 
    117 H117       31.0464    1.1752  -11.3670 H         1 UNK         0.0810 
    118 H118       29.4795    1.0423  -12.1431 H         1 UNK         0.0810 
    119 H119       29.9792   -0.1628  -10.9597 H         1 UNK         0.0810 
    120 H120       30.6963    3.5830   -8.8179 H         1 UNK         0.3040 
    121 H121       31.1861    2.2734   -6.3422 H         1 UNK         0.0766 
    122 H122       31.1822    4.7382   -6.5740 H         1 UNK         0.0812 
    123 H123       32.6050    4.6742   -7.6186 H         1 UNK         0.0812 
    124 H124       32.7218    4.1989   -5.9289 H         1 UNK         0.0812 
    125 H125       32.8980    2.1401   -9.3692 H         1 UNK         0.3205 
    126 H126       35.2982    0.8325   -8.3180 H         1 UNK         0.0754 
    127 H127       35.8725    0.6391  -10.7343 H         1 UNK         0.0769 
    128 H128       35.4029    2.2838  -10.3460 H         1 UNK         0.0769 
    129 H129       34.2760    1.2188  -11.1875 H         1 UNK         0.0769 
    130 H130       32.1090   -0.2250   -8.7232 H         1 UNK         0.2981 
    131 H131       31.0711   -2.1107   -8.7540 H         1 UNK         0.0541 
    132 H132       32.2521   -2.6683  -12.3937 H         1 UNK         0.3459 
    133 H133       32.5848   -1.2715  -11.4009 H         1 UNK         0.3459 
    134 H134       33.6377   -3.6509   -8.1738 H         1 UNK         0.0612 
    135 H135       32.0082   -4.1718   -7.8449 H         1 UNK         0.0612 
    136 H136       30.5302   -1.6905   -6.4909 H         1 UNK         0.0624 
    137 H137       30.5017   -3.3436   -5.9153 H         1 UNK         0.0624 
@<TRIPOS>BOND
     1    1    2 1    
     2    1   72 1    
     3    1   73 1    
     4    1   74 1    
     5    2    3 2    
     6    2    4 am   BACKBONE|DICT|INTERRES
     7    4    5 1    
     8    4   75 1    
     9    5    6 1    
    10    5   35 1    
    11    5   76 1    
    12    6    7 1    
    13    6   77 1    
    14    6   78 1    
    15    7    8 1    
    16    8    9 1    
    17    8   79 1    
    18    8   80 1    
    19    9   10 ar   
    20    9   14 ar   
    21   10   11 ar   
    22   10   81 1    
    23   11   12 ar   
    24   11   71 1    
    25   12   13 ar   
    26   12   82 1    
    27   13   14 ar   
    28   13   15 1    
    29   14   83 1    
    30   15   16 1    
    31   15   84 1    
    32   15   85 1    
    33   16   17 1    
    34   17   18 1    
    35   17   86 1    
    36   17   87 1    
    37   18   19 1    
    38   18   37 1    
    39   18   88 1    
    40   19   20 am   BACKBONE|DICT|INTERRES
    41   19   89 1    
    42   20   21 2    
    43   20   22 1    
    44   22   23 1    
    45   22   24 1    
    46   22   90 1    
    47   23   91 1    
    48   23   92 1    
    49   23   93 1    
    50   24   25 am   BACKBONE|DICT|INTERRES
    51   24   94 1    
    52   25   26 2    
    53   25   27 1    
    54   27   28 1    
    55   27   29 1    
    56   27   95 1    
    57   28   96 1    
    58   28   97 1    
    59   28   98 1    
    60   29   30 am   BACKBONE|DICT|INTERRES
    61   29   99 1    
    62   30   31 2    
    63   30   32 1    
    64   32   33 1    
    65   32   34 1    
    66   32  100 1    
    67   33  101 1    
    68   33  102 1    
    69   33  103 1    
    70   34   35 am   BACKBONE|DICT|INTERRES
    71   34  104 1    
    72   35   36 2    
    73   37   38 2    
    74   37   39 am   BACKBONE|DICT|INTERRES
    75   39   40 1    
    76   39  105 1    
    77   40   41 1    
    78   40   42 1    
    79   40  106 1    
    80   41  107 1    
    81   41  108 1    
    82   41  109 1    
    83   42   43 2    
    84   42   44 am   BACKBONE|DICT|INTERRES
    85   44   45 1    
    86   44  110 1    
    87   45   46 1    
    88   45   47 1    
    89   45  111 1    
    90   46  112 1    
    91   46  113 1    
    92   46  114 1    
    93   47   48 2    
    94   47   49 am   BACKBONE|DICT|INTERRES
    95   49   50 1    
    96   49  115 1    
    97   50   51 1    
    98   50   52 1    
    99   50  116 1    
   100   51  117 1    
   101   51  118 1    
   102   51  119 1    
   103   52   53 2    
   104   52   54 am   BACKBONE|DICT|INTERRES
   105   54   55 1    
   106   54  120 1    
   107   55   56 1    
   108   55   57 1    
   109   55  121 1    
   110   56  122 1    
   111   56  123 1    
   112   56  124 1    
   113   57   58 2    
   114   57   59 am   BACKBONE|DICT|INTERRES
   115   59   60 1    
   116   59  125 1    
   117   60   61 1    
   118   60   62 1    
   119   60  126 1    
   120   61  127 1    
   121   61  128 1    
   122   61  129 1    
   123   62   63 2    
   124   62   64 am   BACKBONE|DICT|INTERRES
   125   64   65 1    
   126   64  130 1    
   127   65   66 1    
   128   65   69 1    
   129   65  131 1    
   130   66   67 am   BACKBONE|DICT|INTERRES
   131   66   68 2    
   132   67  132 1    
   133   67  133 1    
   134   69   70 1    
   135   69  134 1    
   136   69  135 1    
   137   70   71 1    
   138   71  136 1    
   139   71  137 1    
@<TRIPOS>SUBSTRUCTURE
     1 UNK         1 GROUP             0       ****    0 ROOT    
