@<TRIPOS>MOLECULE
3R137
137   139    1
SMALL
USER_CHARGES


@<TRIPOS>ATOM
      1 CA         25.6435   -6.6425    0.7851 C.3       0 UNK        -0.2020 
      2 C          26.1784   -5.4115    0.0696 C.2       0 UNK         0.4855 
      3 O          26.5051   -4.4168    0.7188 O.2       0 UNK        -0.5197 
      4 N          26.2643   -5.4617   -1.2655 N.am      1 UNK        -0.4892 
      5 CA         26.7628   -4.3852   -2.1316 C.3       1 UNK         0.0835 
      6 C6         27.3348   -4.9428   -3.4661 C.3       12 UNK        -0.0855 
      7 S7         28.6758   -6.1632   -3.2061 S.3       12 UNK        -0.2931 
      8 C8         29.9413   -5.6587   -4.4333 C.3       12 UNK         0.0378 
      9 C9         30.6388   -4.3163   -4.1891 C.ar      12 UNK        -0.0802 
     10 C10        31.5418   -3.8450   -5.1501 C.ar      12 UNK        -0.0944 
     11 C11        32.1667   -2.6003   -5.0059 C.ar      12 UNK        -0.0787 
     12 C12        31.8676   -1.8153   -3.8871 C.ar      12 UNK        -0.0862 
     13 C13        30.9730   -2.2707   -2.9204 C.ar      12 UNK        -0.0733 
     14 C14        30.3909   -3.5300   -3.0584 C.ar      12 UNK        -0.0832 
     15 C15        30.5756   -1.3834   -1.7561 C.3       12 UNK         0.0240 
     16 S16        28.9591   -0.6167   -2.0846 S.3       12 UNK        -0.2522 
     17 C17        29.3985    0.7563   -3.2073 C.3       12 UNK        -0.0967 
     18 CA         29.2624    0.4394   -4.7216 C.3       5 UNK         0.0660 
     19 N          27.9782   -0.1840   -5.0579 N.am      5 UNK        -0.4015 
     20 C          27.5504   -0.5141   -6.2865 C.2       4 UNK         0.4946 
     21 O          28.2142   -0.3772   -7.3165 O.2       4 UNK        -0.5353 
     22 CA         26.1017   -1.0044   -6.4173 C.3       4 UNK         0.0277 
     23 CB         26.0708   -2.5337   -6.5494 C.3       4 UNK        -0.1981 
     24 N          25.2064   -0.5605   -5.3400 N.am      4 UNK        -0.4209 
     25 C          24.9511    0.7245   -5.0361 C.2       3 UNK         0.4942 
     26 O          25.5373    1.6747   -5.5604 O.2       3 UNK        -0.5208 
     27 CA         23.8747    1.0127   -3.9764 C.3       3 UNK         0.0250 
     28 CB         22.5360    1.3352   -4.6591 C.3       3 UNK        -0.1990 
     29 N          23.6815   -0.0802   -3.0205 N.am      3 UNK        -0.4232 
     30 C          24.5645   -0.4172   -2.0710 C.2       2 UNK         0.4993 
     31 O          25.6248    0.1818   -1.8909 O.2       2 UNK        -0.5286 
     32 CA         24.2244   -1.6195   -1.1684 C.3       2 UNK         0.0209 
     33 CB         22.8222   -2.2262   -1.4095 C.3       2 UNK        -0.1931 
     34 N          25.2526   -2.6633   -1.2493 N.am      2 UNK        -0.4546 
     35 C          25.6685   -3.3135   -2.3459 C.2       1 UNK         0.5154 
     36 O          25.1978   -3.1195   -3.4682 O.2       1 UNK        -0.5181 
     37 C          29.5509    1.7181   -5.5370 C.2       5 UNK         0.5014 
     38 O          30.7168    1.9865   -5.8331 O.2       5 UNK        -0.5248 
     39 N          28.4901    2.4576   -5.8939 N.am      6 UNK        -0.4434 
     40 CA         28.5315    3.6221   -6.7751 C.3       6 UNK         0.0363 
     41 CB         27.9596    4.8369   -6.0265 C.3       6 UNK        -0.1936 
     42 C          27.7408    3.3833   -8.0732 C.2       6 UNK         0.5081 
     43 O          28.1519    3.8823   -9.1200 O.2       6 UNK        -0.5248 
     44 N          26.6085    2.6692   -7.9914 N.am      7 UNK        -0.4718 
     45 CA         25.6076    2.6119   -9.0599 C.3       7 UNK         0.0273 
     46 CB         24.2247    2.3662   -8.4318 C.3       7 UNK        -0.1935 
     47 C          25.8655    1.5742  -10.1648 C.2       7 UNK         0.5018 
     48 O          25.2772    1.7256  -11.2371 O.2       7 UNK        -0.5186 
     49 N          26.6713    0.5326   -9.9071 N.am      8 UNK        -0.4240 
     50 CA         26.8224   -0.5966  -10.8361 C.3       8 UNK         0.0235 
     51 CB         25.8196   -1.7126  -10.4904 C.3       8 UNK        -0.2000 
     52 C          28.2583   -1.1225  -10.9043 C.2       8 UNK         0.4941 
     53 O          28.8469   -1.1197  -11.9861 O.2       8 UNK        -0.5273 
     54 N          28.8032   -1.5597   -9.7615 N.am      9 UNK        -0.4262 
     55 CA         30.2018   -1.9735   -9.6259 C.3       9 UNK         0.0264 
     56 CB         30.3747   -2.8100   -8.3487 C.3       9 UNK        -0.1955 
     57 C          31.1349   -0.7521   -9.6323 C.2       9 UNK         0.5031 
     58 O          32.2021   -0.8098  -10.2433 O.2       9 UNK        -0.5390 
     59 N          30.6750    0.3396   -8.9999 N.am      10 UNK        -0.4204 
     60 CA         31.1860    1.7123   -9.1115 C.3       10 UNK         0.0237 
     61 CB         30.9273    2.2565  -10.5329 C.3       10 UNK        -0.1985 
     62 C          32.6455    1.9214   -8.6583 C.2       10 UNK         0.4970 
     63 O          33.2785    2.8848   -9.0952 O.2       10 UNK        -0.4914 
     64 N          33.1564    1.0379   -7.7918 N.am      11 UNK        -0.4285 
     65 CA         34.5152    1.1177   -7.2359 C.3       11 UNK         0.1007 
     66 C          34.6645    2.1118   -6.0456 C.2       11 UNK         0.5703 
     67 N          33.5864    2.6333   -5.4687 N.am      11 UNK        -0.7361 
     68 O          35.7843    2.4298   -5.6517 O.2       11 UNK        -0.4986 
     69 C69        35.1116   -0.2919   -6.9596 C.3       12 UNK        -0.0947 
     70 S70        34.5014   -1.1178   -5.4519 S.3       12 UNK        -0.2240 
     71 C71        33.0993   -2.0848   -6.0986 C.3       12 UNK         0.0194 
     72 H72        26.3849   -7.0176    1.4900 H         1 UNK         0.0906 
     73 H73        24.7410   -6.3905    1.3413 H         1 UNK         0.0906 
     74 H74        25.4006   -7.4456    0.0895 H         1 UNK         0.0906 
     75 H75        25.9732   -6.3002   -1.7484 H         1 UNK         0.3140 
     76 H76        27.5770   -3.8783   -1.6108 H         1 UNK         0.1085 
     77 H77        27.7208   -4.1239   -4.0745 H         1 UNK         0.0836 
     78 H78        26.5487   -5.4172   -4.0566 H         1 UNK         0.0836 
     79 H79        30.7038   -6.4380   -4.4676 H         1 UNK         0.0731 
     80 H80        29.4749   -5.6422   -5.4197 H         1 UNK         0.0731 
     81 H81        31.7436   -4.4447   -6.0273 H         1 UNK         0.1312 
     82 H82        32.3027   -0.8311   -3.7812 H         1 UNK         0.1406 
     83 H83        29.7143   -3.8663   -2.2898 H         1 UNK         0.1631 
     84 H84        31.3285   -0.6178   -1.5633 H         1 UNK         0.0717 
     85 H85        30.5062   -1.9818   -0.8464 H         1 UNK         0.0717 
     86 H86        28.7481    1.5921   -2.9400 H         1 UNK         0.0934 
     87 H87        30.4132    1.0900   -2.9809 H         1 UNK         0.0934 
     88 H88        30.0267   -0.2834   -5.0030 H         1 UNK         0.0739 
     89 H89        27.3529   -0.3351   -4.2785 H         1 UNK         0.3093 
     90 H90        25.7070   -0.5824   -7.3430 H         1 UNK         0.0818 
     91 H91        25.0571   -2.9029   -6.7054 H         1 UNK         0.0819 
     92 H92        26.6744   -2.8705   -7.3926 H         1 UNK         0.0819 
     93 H93        26.4744   -3.0204   -5.6647 H         1 UNK         0.0819 
     94 H94        24.7410   -1.2890   -4.8119 H         1 UNK         0.3041 
     95 H95        24.1954    1.8973   -3.4219 H         1 UNK         0.0784 
     96 H96        22.6453    2.1653   -5.3589 H         1 UNK         0.0793 
     97 H97        22.1525    0.4835   -5.2225 H         1 UNK         0.0793 
     98 H98        21.7786    1.6264   -3.9311 H         1 UNK         0.0793 
     99 H99        22.8360   -0.6253   -3.1091 H         1 UNK         0.3024 
    100 H100       24.2480   -1.2394   -0.1457 H         1 UNK         0.1171 
    101 H101       22.6229   -3.0327   -0.7035 H         1 UNK         0.0786 
    102 H102       22.7146   -2.6394   -2.4131 H         1 UNK         0.0786 
    103 H103       22.0375   -1.4820   -1.2659 H         1 UNK         0.0786 
    104 H104       25.6936   -2.9246   -0.3722 H         1 UNK         0.2977 
    105 H105       27.5688    2.1456   -5.6059 H         1 UNK         0.3127 
    106 H106       29.5606    3.8576   -7.0523 H         1 UNK         0.0770 
    107 H107       26.9272    4.6715   -5.7151 H         1 UNK         0.0814 
    108 H108       27.9730    5.7267   -6.6576 H         1 UNK         0.0814 
    109 H109       28.5458    5.0629   -5.1357 H         1 UNK         0.0814 
    110 H110       26.3077    2.3087   -7.0888 H         1 UNK         0.2983 
    111 H111       25.5747    3.5889   -9.5483 H         1 UNK         0.0947 
    112 H112       23.4377    2.4184   -9.1855 H         1 UNK         0.0806 
    113 H113       23.9930    3.1130   -7.6721 H         1 UNK         0.0806 
    114 H114       24.1609    1.3823   -7.9663 H         1 UNK         0.0806 
    115 H115       27.1686    0.4930   -9.0258 H         1 UNK         0.3000 
    116 H116       26.5932   -0.2645  -11.8514 H         1 UNK         0.0850 
    117 H117       25.9433   -2.5698  -11.1537 H         1 UNK         0.0810 
    118 H118       24.7919   -1.3660  -10.6006 H         1 UNK         0.0810 
    119 H119       25.9412   -2.0695   -9.4694 H         1 UNK         0.0810 
    120 H120       28.2879   -1.4533   -8.8943 H         1 UNK         0.3040 
    121 H121       30.4621   -2.6022  -10.4804 H         1 UNK         0.0766 
    122 H122       31.3928   -3.1931   -8.2770 H         1 UNK         0.0812 
    123 H123       29.7071   -3.6716   -8.3456 H         1 UNK         0.0812 
    124 H124       30.1741   -2.2306   -7.4468 H         1 UNK         0.0812 
    125 H125       29.8162    0.2327   -8.4687 H         1 UNK         0.3205 
    126 H126       30.5830    2.3093   -8.4321 H         1 UNK         0.0754 
    127 H127       31.1500    3.3224  -10.5944 H         1 UNK         0.0769 
    128 H128       29.8822    2.1332  -10.8185 H         1 UNK         0.0769 
    129 H129       31.5413    1.7491  -11.2777 H         1 UNK         0.0769 
    130 H130       32.5631    0.3042   -7.4399 H         1 UNK         0.2981 
    131 H131       35.1462    1.5404   -8.0202 H         1 UNK         0.0541 
    132 H132       32.6509    2.3703   -5.7624 H         1 UNK         0.3459 
    133 H133       33.7052    3.2810   -4.7070 H         1 UNK         0.3459 
    134 H134       36.1950   -0.2085   -6.8587 H         1 UNK         0.0612 
    135 H135       34.9519   -0.9453   -7.8190 H         1 UNK         0.0612 
    136 H136       32.5144   -1.4630   -6.7743 H         1 UNK         0.0624 
    137 H137       33.4936   -2.9125   -6.6901 H         1 UNK         0.0624 
@<TRIPOS>BOND
     1    1    2 1    
     2    1   72 1    
     3    1   73 1    
     4    1   74 1    
     5    2    3 2    
     6    2    4 am   BACKBONE|DICT|INTERRES
     7    4    5 1    
     8    4   75 1    
     9    5    6 1    
    10    5   35 1    
    11    5   76 1    
    12    6    7 1    
    13    6   77 1    
    14    6   78 1    
    15    7    8 1    
    16    8    9 1    
    17    8   79 1    
    18    8   80 1    
    19    9   10 ar   
    20    9   14 ar   
    21   10   11 ar   
    22   10   81 1    
    23   11   12 ar   
    24   11   71 1    
    25   12   13 ar   
    26   12   82 1    
    27   13   14 ar   
    28   13   15 1    
    29   14   83 1    
    30   15   16 1    
    31   15   84 1    
    32   15   85 1    
    33   16   17 1    
    34   17   18 1    
    35   17   86 1    
    36   17   87 1    
    37   18   19 1    
    38   18   37 1    
    39   18   88 1    
    40   19   20 am   BACKBONE|DICT|INTERRES
    41   19   89 1    
    42   20   21 2    
    43   20   22 1    
    44   22   23 1    
    45   22   24 1    
    46   22   90 1    
    47   23   91 1    
    48   23   92 1    
    49   23   93 1    
    50   24   25 am   BACKBONE|DICT|INTERRES
    51   24   94 1    
    52   25   26 2    
    53   25   27 1    
    54   27   28 1    
    55   27   29 1    
    56   27   95 1    
    57   28   96 1    
    58   28   97 1    
    59   28   98 1    
    60   29   30 am   BACKBONE|DICT|INTERRES
    61   29   99 1    
    62   30   31 2    
    63   30   32 1    
    64   32   33 1    
    65   32   34 1    
    66   32  100 1    
    67   33  101 1    
    68   33  102 1    
    69   33  103 1    
    70   34   35 am   BACKBONE|DICT|INTERRES
    71   34  104 1    
    72   35   36 2    
    73   37   38 2    
    74   37   39 am   BACKBONE|DICT|INTERRES
    75   39   40 1    
    76   39  105 1    
    77   40   41 1    
    78   40   42 1    
    79   40  106 1    
    80   41  107 1    
    81   41  108 1    
    82   41  109 1    
    83   42   43 2    
    84   42   44 am   BACKBONE|DICT|INTERRES
    85   44   45 1    
    86   44  110 1    
    87   45   46 1    
    88   45   47 1    
    89   45  111 1    
    90   46  112 1    
    91   46  113 1    
    92   46  114 1    
    93   47   48 2    
    94   47   49 am   BACKBONE|DICT|INTERRES
    95   49   50 1    
    96   49  115 1    
    97   50   51 1    
    98   50   52 1    
    99   50  116 1    
   100   51  117 1    
   101   51  118 1    
   102   51  119 1    
   103   52   53 2    
   104   52   54 am   BACKBONE|DICT|INTERRES
   105   54   55 1    
   106   54  120 1    
   107   55   56 1    
   108   55   57 1    
   109   55  121 1    
   110   56  122 1    
   111   56  123 1    
   112   56  124 1    
   113   57   58 2    
   114   57   59 am   BACKBONE|DICT|INTERRES
   115   59   60 1    
   116   59  125 1    
   117   60   61 1    
   118   60   62 1    
   119   60  126 1    
   120   61  127 1    
   121   61  128 1    
   122   61  129 1    
   123   62   63 2    
   124   62   64 am   BACKBONE|DICT|INTERRES
   125   64   65 1    
   126   64  130 1    
   127   65   66 1    
   128   65   69 1    
   129   65  131 1    
   130   66   67 am   BACKBONE|DICT|INTERRES
   131   66   68 2    
   132   67  132 1    
   133   67  133 1    
   134   69   70 1    
   135   69  134 1    
   136   69  135 1    
   137   70   71 1    
   138   71  136 1    
   139   71  137 1    
@<TRIPOS>SUBSTRUCTURE
     1 UNK         1 GROUP             0       ****    0 ROOT    
