@<TRIPOS>MOLECULE
3R137
137   139    1
SMALL
USER_CHARGES


@<TRIPOS>ATOM
      1 CA         29.3238    1.0085    1.5990 C.3       0 UNK        -0.2020 
      2 C          28.8612   -0.3863    2.0128 C.2       0 UNK         0.4855 
      3 O          28.7493   -0.6533    3.2074 O.2       0 UNK        -0.5197 
      4 N          28.5851   -1.3101    1.0806 N.am      1 UNK        -0.4892 
      5 CA         28.6377   -1.1509   -0.3816 C.3       1 UNK         0.0835 
      6 C6         28.5851   -2.5181   -1.1094 C.3       12 UNK        -0.0855 
      7 S7         29.9541   -3.6192   -0.6275 S.3       12 UNK        -0.2931 
      8 C8         29.7413   -4.9868   -1.8185 C.3       12 UNK         0.0378 
      9 C9         30.0552   -4.6097   -3.2654 C.ar      12 UNK        -0.0802 
     10 C10        31.1690   -3.8238   -3.5819 C.ar      12 UNK        -0.0944 
     11 C11        31.4775   -3.5101   -4.9090 C.ar      12 UNK        -0.0787 
     12 C12        30.6637   -4.0145   -5.9321 C.ar      12 UNK        -0.0862 
     13 C13        29.5478   -4.8062   -5.6352 C.ar      12 UNK        -0.0733 
     14 C14        29.2504   -5.0979   -4.3000 C.ar      12 UNK        -0.0832 
     15 C15        28.7010   -5.3912   -6.7602 C.3       12 UNK         0.0240 
     16 S16        26.9490   -4.8789   -6.6718 S.3       12 UNK        -0.2522 
     17 C17        26.6027   -4.4211   -8.4128 C.3       12 UNK        -0.0967 
     18 CA         26.3794   -2.9051   -8.6516 C.3       5 UNK         0.0660 
     19 N          25.1683   -2.4104   -7.9930 N.am      5 UNK        -0.4015 
     20 C          24.6239   -1.2041   -8.2106 C.2       4 UNK         0.4946 
     21 O          25.0570   -0.3927   -9.0282 O.2       4 UNK        -0.5353 
     22 CA         23.4195   -0.8170   -7.3374 C.3       4 UNK         0.0277 
     23 CB         22.1088   -1.2931   -7.9834 C.3       4 UNK        -0.1981 
     24 N          23.5089   -1.3257   -5.9646 N.am      4 UNK        -0.4209 
     25 C          24.4678   -0.9879   -5.0923 C.2       3 UNK         0.4942 
     26 O          25.4029   -0.2275   -5.3554 O.2       3 UNK        -0.5208 
     27 CA         24.3996   -1.6561   -3.7178 C.3       3 UNK         0.0250 
     28 CB         25.2392   -2.9463   -3.7080 C.3       3 UNK        -0.1990 
     29 N          24.9328   -0.7378   -2.7175 N.am      3 UNK        -0.4232 
     30 C          24.3582   -0.4311   -1.5498 C.2       2 UNK         0.4993 
     31 O          23.2797   -0.8938   -1.1727 O.2       2 UNK        -0.5286 
     32 CA         25.1612    0.5071   -0.6281 C.3       2 UNK         0.0209 
     33 CB         24.3662    0.9505    0.6147 C.3       2 UNK        -0.1931 
     34 N          26.3917   -0.1563   -0.1919 N.am      2 UNK        -0.4546 
     35 C          27.5108   -0.2488   -0.9229 C.2       1 UNK         0.5154 
     36 O          27.6585    0.3248   -2.0013 O.2       1 UNK        -0.5181 
     37 C          27.6179   -2.0603   -8.2889 C.2       5 UNK         0.5014 
     38 O          28.4063   -1.7298   -9.1738 O.2       5 UNK        -0.5248 
     39 N          27.7393   -1.6983   -7.0039 N.am      6 UNK        -0.4434 
     40 CA         28.8224   -0.8799   -6.4681 C.3       6 UNK         0.0363 
     41 CB         28.8274   -0.9624   -4.9358 C.3       6 UNK        -0.1936 
     42 C          28.7336    0.5734   -6.9444 C.2       6 UNK         0.5081 
     43 O          29.7615    1.1635   -7.2751 O.2       6 UNK        -0.5248 
     44 N          27.5058    1.1061   -7.0202 N.am      7 UNK        -0.4718 
     45 CA         27.2071    2.4184   -7.5938 C.3       7 UNK         0.0273 
     46 CB         25.7362    2.7760   -7.3288 C.3       7 UNK        -0.1935 
     47 C          27.5326    2.4909   -9.0958 C.2       7 UNK         0.5018 
     48 O          28.1373    3.4711   -9.5304 O.2       7 UNK        -0.5186 
     49 N          27.1572    1.4473   -9.8513 N.am      8 UNK        -0.4240 
     50 CA         27.4458    1.3091  -11.2815 C.3       8 UNK         0.0235 
     51 CB         26.6419    0.1358  -11.8646 C.3       8 UNK        -0.2000 
     52 C          28.9454    1.1427  -11.5790 C.2       8 UNK         0.4941 
     53 O          29.4535    1.7938  -12.4927 O.2       8 UNK        -0.5273 
     54 N          29.6281    0.2884  -10.8034 N.am      9 UNK        -0.4262 
     55 CA         31.0703    0.0446  -10.9090 C.3       9 UNK         0.0264 
     56 CB         31.4112   -1.2673  -10.1857 C.3       9 UNK        -0.1955 
     57 C          31.9377    1.1964  -10.3673 C.2       9 UNK         0.5031 
     58 O          33.1131    1.2708  -10.7289 O.2       9 UNK        -0.5390 
     59 N          31.3536    2.0540   -9.5171 N.am      10 UNK        -0.4204 
     60 CA         31.9732    3.1621   -8.7842 C.3       10 UNK         0.0237 
     61 CB         32.4973    4.2512   -9.7452 C.3       10 UNK        -0.1985 
     62 C          33.0309    2.6553   -7.7866 C.2       10 UNK         0.4970 
     63 O          34.1784    3.1057   -7.8158 O.2       10 UNK        -0.4914 
     64 N          32.6154    1.7167   -6.9300 N.am      11 UNK        -0.4285 
     65 CA         33.4356    1.0823   -5.8895 C.3       11 UNK         0.1007 
     66 C          32.7456    1.1287   -4.4981 C.2       11 UNK         0.5703 
     67 N          33.4317    0.6894   -3.4509 N.am      11 UNK        -0.7361 
     68 O          31.6087    1.5718   -4.3472 O.2       11 UNK        -0.4986 
     69 C69        33.8972   -0.3413   -6.3135 C.3       12 UNK        -0.0947 
     70 S70        32.5249   -1.5108   -6.5977 S.3       12 UNK        -0.2240 
     71 C71        32.7170   -2.6625   -5.1979 C.3       12 UNK         0.0194 
     72 H72        29.6860    1.5598    2.4666 H         1 UNK         0.0906 
     73 H73        30.1410    0.9628    0.8804 H         1 UNK         0.0906 
     74 H74        28.5021    1.5784    1.1666 H         1 UNK         0.0906 
     75 H75        28.3259   -2.2355    1.3931 H         1 UNK         0.3140 
     76 H76        29.5837   -0.6744   -0.6458 H         1 UNK         0.1085 
     77 H77        28.6339   -2.3735   -2.1905 H         1 UNK         0.0836 
     78 H78        27.6411   -3.0304   -0.9114 H         1 UNK         0.0836 
     79 H79        30.4011   -5.8050   -1.5274 H         1 UNK         0.0731 
     80 H80        28.7223   -5.3676   -1.7314 H         1 UNK         0.0731 
     81 H81        31.8060   -3.4592   -2.7878 H         1 UNK         0.1312 
     82 H82        30.9046   -3.7980   -6.9636 H         1 UNK         0.1406 
     83 H83        28.3966   -5.7218   -4.0720 H         1 UNK         0.1631 
     84 H84        28.7500   -6.4799   -6.7139 H         1 UNK         0.0717 
     85 H85        29.1292   -5.1113   -7.7232 H         1 UNK         0.0717 
     86 H86        27.3958   -4.7856   -9.0674 H         1 UNK         0.0934 
     87 H87        25.7130   -4.9696   -8.7264 H         1 UNK         0.0934 
     88 H88        26.2210   -2.7730   -9.7244 H         1 UNK         0.0739 
     89 H89        24.7520   -3.0162   -7.3017 H         1 UNK         0.3093 
     90 H90        23.3948    0.2734   -7.2825 H         1 UNK         0.0818 
     91 H91        21.2404   -0.9412   -7.4261 H         1 UNK         0.0819 
     92 H92        22.0145   -0.9093   -9.0005 H         1 UNK         0.0819 
     93 H93        22.0546   -2.3810   -8.0398 H         1 UNK         0.0819 
     94 H94        22.7819   -1.9621   -5.6689 H         1 UNK         0.3041 
     95 H95        23.3580   -1.8996   -3.4971 H         1 UNK         0.0784 
     96 H96        24.8690   -3.6642   -4.4410 H         1 UNK         0.0793 
     97 H97        26.2872   -2.7515   -3.9411 H         1 UNK         0.0793 
     98 H98        25.2021   -3.4331   -2.7333 H         1 UNK         0.0793 
     99 H99        25.8049   -0.2817   -2.9661 H         1 UNK         0.3024 
    100 H100       25.4108    1.4022   -1.2033 H         1 UNK         0.1171 
    101 H101       23.4446    1.4582    0.3271 H         1 UNK         0.0786 
    102 H102       24.9418    1.6472    1.2245 H         1 UNK         0.0786 
    103 H103       24.0900    0.1037    1.2443 H         1 UNK         0.0786 
    104 H104       26.3447   -0.6794    0.6713 H         1 UNK         0.2977 
    105 H105       27.0267   -1.9900   -6.3520 H         1 UNK         0.3127 
    106 H106       29.7571   -1.2960   -6.8402 H         1 UNK         0.0770 
    107 H107       27.9249   -0.5297   -4.5055 H         1 UNK         0.0814 
    108 H108       29.6788   -0.4223   -4.5205 H         1 UNK         0.0814 
    109 H109       28.9013   -1.9940   -4.5946 H         1 UNK         0.0814 
    110 H110       26.7223    0.5651   -6.6663 H         1 UNK         0.2983 
    111 H111       27.8345    3.1523   -7.0831 H         1 UNK         0.0947 
    112 H112       25.5057    3.7754   -7.7002 H         1 UNK         0.0806 
    113 H113       25.5115    2.7650   -6.2620 H         1 UNK         0.0806 
    114 H114       25.0555    2.0807   -7.8201 H         1 UNK         0.0806 
    115 H115       26.6048    0.7078   -9.4240 H         1 UNK         0.3000 
    116 H116       27.1124    2.2244  -11.7753 H         1 UNK         0.0850 
    117 H117       26.8330    0.0224  -12.9326 H         1 UNK         0.0810 
    118 H118       25.5699    0.2914  -11.7416 H         1 UNK         0.0810 
    119 H119       26.8982   -0.8088  -11.3836 H         1 UNK         0.0810 
    120 H120       29.1233   -0.2694  -10.1164 H         1 UNK         0.3040 
    121 H121       31.3192   -0.0775  -11.9652 H         1 UNK         0.0766 
    122 H122       32.4816   -1.4743  -10.2211 H         1 UNK         0.0812 
    123 H123       30.8994   -2.1155  -10.6404 H         1 UNK         0.0812 
    124 H124       31.1192   -1.2272   -9.1365 H         1 UNK         0.0812 
    125 H125       30.4079    1.8357   -9.2253 H         1 UNK         0.3205 
    126 H126       31.1775    3.6101   -8.1867 H         1 UNK         0.0754 
    127 H127       32.8506    5.1209   -9.1901 H         1 UNK         0.0769 
    128 H128       31.7119    4.5932  -10.4193 H         1 UNK         0.0769 
    129 H129       33.3297    3.8955  -10.3530 H         1 UNK         0.0769 
    130 H130       31.6366    1.4371   -6.9424 H         1 UNK         0.2981 
    131 H131       34.3372    1.6828   -5.7575 H         1 UNK         0.0541 
    132 H132       33.0023    0.7220   -2.5402 H         1 UNK         0.3459 
    133 H133       34.3722    0.3418   -3.5491 H         1 UNK         0.3459 
    134 H134       34.5925   -0.7573   -5.5831 H         1 UNK         0.0612 
    135 H135       34.4643   -0.2721   -7.2429 H         1 UNK         0.0612 
    136 H136       33.5615   -3.3233   -5.3965 H         1 UNK         0.0624 
    137 H137       32.9747   -2.0821   -4.3109 H         1 UNK         0.0624 
@<TRIPOS>BOND
     1    1    2 1    
     2    1   72 1    
     3    1   73 1    
     4    1   74 1    
     5    2    3 2    
     6    2    4 am   BACKBONE|DICT|INTERRES
     7    4    5 1    
     8    4   75 1    
     9    5    6 1    
    10    5   35 1    
    11    5   76 1    
    12    6    7 1    
    13    6   77 1    
    14    6   78 1    
    15    7    8 1    
    16    8    9 1    
    17    8   79 1    
    18    8   80 1    
    19    9   10 ar   
    20    9   14 ar   
    21   10   11 ar   
    22   10   81 1    
    23   11   12 ar   
    24   11   71 1    
    25   12   13 ar   
    26   12   82 1    
    27   13   14 ar   
    28   13   15 1    
    29   14   83 1    
    30   15   16 1    
    31   15   84 1    
    32   15   85 1    
    33   16   17 1    
    34   17   18 1    
    35   17   86 1    
    36   17   87 1    
    37   18   19 1    
    38   18   37 1    
    39   18   88 1    
    40   19   20 am   BACKBONE|DICT|INTERRES
    41   19   89 1    
    42   20   21 2    
    43   20   22 1    
    44   22   23 1    
    45   22   24 1    
    46   22   90 1    
    47   23   91 1    
    48   23   92 1    
    49   23   93 1    
    50   24   25 am   BACKBONE|DICT|INTERRES
    51   24   94 1    
    52   25   26 2    
    53   25   27 1    
    54   27   28 1    
    55   27   29 1    
    56   27   95 1    
    57   28   96 1    
    58   28   97 1    
    59   28   98 1    
    60   29   30 am   BACKBONE|DICT|INTERRES
    61   29   99 1    
    62   30   31 2    
    63   30   32 1    
    64   32   33 1    
    65   32   34 1    
    66   32  100 1    
    67   33  101 1    
    68   33  102 1    
    69   33  103 1    
    70   34   35 am   BACKBONE|DICT|INTERRES
    71   34  104 1    
    72   35   36 2    
    73   37   38 2    
    74   37   39 am   BACKBONE|DICT|INTERRES
    75   39   40 1    
    76   39  105 1    
    77   40   41 1    
    78   40   42 1    
    79   40  106 1    
    80   41  107 1    
    81   41  108 1    
    82   41  109 1    
    83   42   43 2    
    84   42   44 am   BACKBONE|DICT|INTERRES
    85   44   45 1    
    86   44  110 1    
    87   45   46 1    
    88   45   47 1    
    89   45  111 1    
    90   46  112 1    
    91   46  113 1    
    92   46  114 1    
    93   47   48 2    
    94   47   49 am   BACKBONE|DICT|INTERRES
    95   49   50 1    
    96   49  115 1    
    97   50   51 1    
    98   50   52 1    
    99   50  116 1    
   100   51  117 1    
   101   51  118 1    
   102   51  119 1    
   103   52   53 2    
   104   52   54 am   BACKBONE|DICT|INTERRES
   105   54   55 1    
   106   54  120 1    
   107   55   56 1    
   108   55   57 1    
   109   55  121 1    
   110   56  122 1    
   111   56  123 1    
   112   56  124 1    
   113   57   58 2    
   114   57   59 am   BACKBONE|DICT|INTERRES
   115   59   60 1    
   116   59  125 1    
   117   60   61 1    
   118   60   62 1    
   119   60  126 1    
   120   61  127 1    
   121   61  128 1    
   122   61  129 1    
   123   62   63 2    
   124   62   64 am   BACKBONE|DICT|INTERRES
   125   64   65 1    
   126   64  130 1    
   127   65   66 1    
   128   65   69 1    
   129   65  131 1    
   130   66   67 am   BACKBONE|DICT|INTERRES
   131   66   68 2    
   132   67  132 1    
   133   67  133 1    
   134   69   70 1    
   135   69  134 1    
   136   69  135 1    
   137   70   71 1    
   138   71  136 1    
   139   71  137 1    
@<TRIPOS>SUBSTRUCTURE
     1 UNK         1 GROUP             0       ****    0 ROOT    
