@<TRIPOS>MOLECULE
3R137
137   139    1
SMALL
USER_CHARGES


@<TRIPOS>ATOM
      1 CA         23.5249   -4.4859    0.7065 C.3       0 UNK        -0.2020 
      2 C          24.9726   -4.1053    0.9787 C.2       0 UNK         0.4855 
      3 O          25.3953   -4.0851    2.1349 O.2       0 UNK        -0.5197 
      4 N          25.7341   -3.8009   -0.0755 N.am      1 UNK        -0.4892 
      5 CA         27.1302   -3.3773   -0.0247 C.3       1 UNK         0.0835 
      6 C6         28.0894   -4.5921    0.1052 C.3       12 UNK        -0.0855 
      7 S7         29.8679   -4.1628    0.1907 S.3       12 UNK        -0.2931 
      8 C8         30.6180   -5.3651   -0.9599 C.3       12 UNK         0.0378 
      9 C9         30.7190   -4.8544   -2.3951 C.ar      12 UNK        -0.0802 
     10 C10        31.9711   -4.6282   -2.9768 C.ar      12 UNK        -0.0944 
     11 C11        32.0769   -4.2466   -4.3187 C.ar      12 UNK        -0.0787 
     12 C12        30.9149   -4.0589   -5.0737 C.ar      12 UNK        -0.0862 
     13 C13        29.6510   -4.2749   -4.5062 C.ar      12 UNK        -0.0733 
     14 C14        29.5702   -4.6767   -3.1704 C.ar      12 UNK        -0.0832 
     15 C15        28.3387   -4.1255   -5.2781 C.3       12 UNK         0.0240 
     16 S16        28.4835   -3.8459   -7.0761 S.3       12 UNK        -0.2522 
     17 C17        28.7161   -2.0396   -7.1413 C.3       12 UNK        -0.0967 
     18 CA         27.3836   -1.3151   -7.4513 C.3       5 UNK         0.0660 
     19 N          26.4427   -1.4079   -6.3323 N.am      5 UNK        -0.4015 
     20 C          25.1611   -1.7848   -6.4330 C.2       4 UNK         0.4946 
     21 O          24.6093   -2.0724   -7.4961 O.2       4 UNK        -0.5353 
     22 CA         24.3466   -1.8675   -5.1283 C.3       4 UNK         0.0277 
     23 CB         24.2917   -3.3177   -4.6202 C.3       4 UNK        -0.1981 
     24 N          24.8690   -1.0018   -4.0683 N.am      4 UNK        -0.4209 
     25 C          24.7518    0.3351   -4.0686 C.2       3 UNK         0.4942 
     26 O          24.1326    0.9646   -4.9265 O.2       3 UNK        -0.5208 
     27 CA         25.4635    1.1138   -2.9468 C.3       3 UNK         0.0250 
     28 CB         24.4752    1.4413   -1.8162 C.3       3 UNK        -0.1990 
     29 N          26.6331    0.4375   -2.3787 N.am      3 UNK        -0.4232 
     30 C          27.7141    0.0266   -3.0569 C.2       2 UNK         0.4993 
     31 O          27.8547    0.1521   -4.2747 O.2       2 UNK        -0.5286 
     32 CA         28.7970   -0.6938   -2.2421 C.3       2 UNK         0.0209 
     33 CB         29.7658    0.3359   -1.6376 C.3       2 UNK        -0.1931 
     34 N          28.2961   -1.5572   -1.1673 N.am      2 UNK        -0.4546 
     35 C          27.3766   -2.5252   -1.2812 C.2       1 UNK         0.5154 
     36 O          26.7309   -2.7534   -2.3100 O.2       1 UNK        -0.5181 
     37 C          27.6368    0.1492   -7.8480 C.2       5 UNK         0.5014 
     38 O          27.9399    0.3885   -9.0156 O.2       5 UNK        -0.5248 
     39 N          27.4925    1.0956   -6.9052 N.am      6 UNK        -0.4434 
     40 CA         27.7905    2.5312   -7.0294 C.3       6 UNK         0.0363 
     41 CB         27.3642    3.2403   -5.7339 C.3       6 UNK        -0.1936 
     42 C          27.1809    3.2518   -8.2464 C.2       6 UNK         0.5081 
     43 O          27.7498    4.2397   -8.7118 O.2       6 UNK        -0.5248 
     44 N          26.0417    2.7538   -8.7421 N.am      7 UNK        -0.4718 
     45 CA         25.3740    3.2475   -9.9472 C.3       7 UNK         0.0273 
     46 CB         23.9215    2.7427   -9.9474 C.3       7 UNK        -0.1935 
     47 C          26.0791    2.8488  -11.2596 C.2       7 UNK         0.5018 
     48 O          25.8049    3.4740  -12.2852 O.2       7 UNK        -0.5186 
     49 N          26.9350    1.8173  -11.2243 N.am      8 UNK        -0.4240 
     50 CA         27.5870    1.2287  -12.3962 C.3       8 UNK         0.0235 
     51 CB         27.0850   -0.2148  -12.5708 C.3       8 UNK        -0.2000 
     52 C          29.1208    1.2449  -12.3074 C.2       8 UNK         0.4941 
     53 O          29.7658    1.3867  -13.3477 O.2       8 UNK        -0.5273 
     54 N          29.6877    1.0819  -11.1051 N.am      9 UNK        -0.4262 
     55 CA         31.1275    0.9765  -10.8719 C.3       9 UNK         0.0264 
     56 CB         31.5175   -0.5109  -10.8053 C.3       9 UNK        -0.1955 
     57 C          31.5080    1.6870   -9.5703 C.2       9 UNK         0.5031 
     58 O          30.6917    1.7711   -8.6521 O.2       9 UNK        -0.5390 
     59 N          32.7685    2.1341   -9.4885 N.am      10 UNK        -0.4204 
     60 CA         33.3406    2.8650   -8.3494 C.3       10 UNK         0.0237 
     61 CB         34.7678    3.3135   -8.7059 C.3       10 UNK        -0.1985 
     62 C          33.3372    2.0994   -7.0112 C.2       10 UNK         0.4970 
     63 O          33.4087    2.7386   -5.9608 O.2       10 UNK        -0.4914 
     64 N          33.2483    0.7636   -7.0665 N.am      11 UNK        -0.4285 
     65 CA         33.0732   -0.1102   -5.8981 C.3       11 UNK         0.1007 
     66 C          31.6657   -0.0296   -5.2367 C.2       11 UNK         0.5703 
     67 N          30.6607    0.5858   -5.8510 N.am      11 UNK        -0.7361 
     68 O          31.4891   -0.5243   -4.1305 O.2       11 UNK        -0.4986 
     69 C69        33.4818   -1.5723   -6.2265 C.3       12 UNK        -0.0947 
     70 S70        34.1671   -2.4534   -4.7814 S.3       12 UNK        -0.2240 
     71 C71        33.4493   -4.1147   -4.9680 C.3       12 UNK         0.0194 
     72 H72        23.3258   -5.4917    1.0754 H         1 UNK         0.0906 
     73 H73        22.8531   -3.7963    1.2169 H         1 UNK         0.0906 
     74 H74        23.2900   -4.4627   -0.3576 H         1 UNK         0.0906 
     75 H75        25.3480   -3.7868   -1.0127 H         1 UNK         0.3140 
     76 H76        27.2620   -2.7298    0.8455 H         1 UNK         0.1085 
     77 H77        27.8531   -5.1360    1.0212 H         1 UNK         0.0836 
     78 H78        27.9077   -5.3041   -0.6996 H         1 UNK         0.0836 
     79 H79        31.6119   -5.6104   -0.5823 H         1 UNK         0.0731 
     80 H80        30.0584   -6.3014   -0.9415 H         1 UNK         0.0731 
     81 H81        32.8702   -4.7836   -2.3961 H         1 UNK         0.1312 
     82 H82        31.0089   -3.7694   -6.1095 H         1 UNK         0.1406 
     83 H83        28.5978   -4.8665   -2.7421 H         1 UNK         0.1631 
     84 H84        27.7585   -3.3190   -4.8295 H         1 UNK         0.0717 
     85 H85        27.7515   -5.0344   -5.1389 H         1 UNK         0.0717 
     86 H86        29.1488   -1.6882   -6.2030 H         1 UNK         0.0934 
     87 H87        29.4593   -1.8355   -7.9151 H         1 UNK         0.0934 
     88 H88        26.9503   -1.7897   -8.3346 H         1 UNK         0.0739 
     89 H89        26.8071   -1.1470   -5.4232 H         1 UNK         0.3093 
     90 H90        23.3270   -1.5500   -5.3576 H         1 UNK         0.0818 
     91 H91        23.6797   -3.4017   -3.7221 H         1 UNK         0.0819 
     92 H92        23.8555   -3.9769   -5.3720 H         1 UNK         0.0819 
     93 H93        25.2843   -3.7041   -4.3875 H         1 UNK         0.0819 
     94 H94        25.4154   -1.4506   -3.3403 H         1 UNK         0.3041 
     95 H95        25.8125    2.0538   -3.3774 H         1 UNK         0.0784 
     96 H96        23.6023    1.9708   -2.2012 H         1 UNK         0.0793 
     97 H97        24.1160    0.5387   -1.3198 H         1 UNK         0.0793 
     98 H98        24.9317    2.0821   -1.0615 H         1 UNK         0.0793 
     99 H99        26.6163    0.2696   -1.3834 H         1 UNK         0.3024 
    100 H100       29.3459   -1.3336   -2.9364 H         1 UNK         0.1171 
    101 H101       30.1265    1.0302   -2.3981 H         1 UNK         0.0786 
    102 H102       30.6423   -0.1521   -1.2107 H         1 UNK         0.0786 
    103 H103       29.2930    0.9299   -0.8548 H         1 UNK         0.0786 
    104 H104       28.7813   -1.4766   -0.2848 H         1 UNK         0.2977 
    105 H105       27.3140    0.7798   -5.9566 H         1 UNK         0.3127 
    106 H106       28.8725    2.6267   -7.1157 H         1 UNK         0.0770 
    107 H107       26.2932    3.1370   -5.5559 H         1 UNK         0.0814 
    108 H108       27.5863    4.3074   -5.7797 H         1 UNK         0.0814 
    109 H109       27.8927    2.8412   -4.8682 H         1 UNK         0.0814 
    110 H110       25.6425    1.9423   -8.2925 H         1 UNK         0.2983 
    111 H111       25.3565    4.3391   -9.9085 H         1 UNK         0.0947 
    112 H112       23.3770    3.1187  -10.8148 H         1 UNK         0.0806 
    113 H113       23.3839    3.0781   -9.0602 H         1 UNK         0.0806 
    114 H114       23.8727    1.6534   -9.9794 H         1 UNK         0.0806 
    115 H115       27.1408    1.3788  -10.3288 H         1 UNK         0.3000 
    116 H116       27.3201    1.7858  -13.2969 H         1 UNK         0.0850 
    117 H117       27.5490   -0.6895  -13.4366 H         1 UNK         0.0810 
    118 H118       26.0063   -0.2422  -12.7258 H         1 UNK         0.0810 
    119 H119       27.3138   -0.8288  -11.6984 H         1 UNK         0.0810 
    120 H120       29.1082    0.9787  -10.2721 H         1 UNK         0.3040 
    121 H121       31.6733    1.4564  -11.6872 H         1 UNK         0.0766 
    122 H122       32.5883   -0.6338  -10.6383 H         1 UNK         0.0812 
    123 H123       31.2759   -1.0245  -11.7360 H         1 UNK         0.0812 
    124 H124       30.9969   -1.0255   -9.9963 H         1 UNK         0.0812 
    125 H125       33.3784    1.9995  -10.2827 H         1 UNK         0.3205 
    126 H126       32.7299    3.7582   -8.2014 H         1 UNK         0.0754 
    127 H127       35.2122    3.8893   -7.8925 H         1 UNK         0.0769 
    128 H128       34.7757    3.9509   -9.5904 H         1 UNK         0.0769 
    129 H129       35.4225    2.4622   -8.8973 H         1 UNK         0.0769 
    130 H130       33.1833    0.3234   -7.9708 H         1 UNK         0.2981 
    131 H131       33.7700    0.2627   -5.1447 H         1 UNK         0.0541 
    132 H132       30.7763    1.0074   -6.7663 H         1 UNK         0.3459 
    133 H133       29.7689    0.6271   -5.3805 H         1 UNK         0.3459 
    134 H134       34.2654   -1.5847   -6.9858 H         1 UNK         0.0612 
    135 H135       32.6455   -2.1250   -6.6570 H         1 UNK         0.0612 
    136 H136       33.4010   -4.3796   -6.0254 H         1 UNK         0.0624 
    137 H137       34.1329   -4.8337   -4.5142 H         1 UNK         0.0624 
@<TRIPOS>BOND
     1    1    2 1    
     2    1   72 1    
     3    1   73 1    
     4    1   74 1    
     5    2    3 2    
     6    2    4 am   BACKBONE|DICT|INTERRES
     7    4    5 1    
     8    4   75 1    
     9    5    6 1    
    10    5   35 1    
    11    5   76 1    
    12    6    7 1    
    13    6   77 1    
    14    6   78 1    
    15    7    8 1    
    16    8    9 1    
    17    8   79 1    
    18    8   80 1    
    19    9   10 ar   
    20    9   14 ar   
    21   10   11 ar   
    22   10   81 1    
    23   11   12 ar   
    24   11   71 1    
    25   12   13 ar   
    26   12   82 1    
    27   13   14 ar   
    28   13   15 1    
    29   14   83 1    
    30   15   16 1    
    31   15   84 1    
    32   15   85 1    
    33   16   17 1    
    34   17   18 1    
    35   17   86 1    
    36   17   87 1    
    37   18   19 1    
    38   18   37 1    
    39   18   88 1    
    40   19   20 am   BACKBONE|DICT|INTERRES
    41   19   89 1    
    42   20   21 2    
    43   20   22 1    
    44   22   23 1    
    45   22   24 1    
    46   22   90 1    
    47   23   91 1    
    48   23   92 1    
    49   23   93 1    
    50   24   25 am   BACKBONE|DICT|INTERRES
    51   24   94 1    
    52   25   26 2    
    53   25   27 1    
    54   27   28 1    
    55   27   29 1    
    56   27   95 1    
    57   28   96 1    
    58   28   97 1    
    59   28   98 1    
    60   29   30 am   BACKBONE|DICT|INTERRES
    61   29   99 1    
    62   30   31 2    
    63   30   32 1    
    64   32   33 1    
    65   32   34 1    
    66   32  100 1    
    67   33  101 1    
    68   33  102 1    
    69   33  103 1    
    70   34   35 am   BACKBONE|DICT|INTERRES
    71   34  104 1    
    72   35   36 2    
    73   37   38 2    
    74   37   39 am   BACKBONE|DICT|INTERRES
    75   39   40 1    
    76   39  105 1    
    77   40   41 1    
    78   40   42 1    
    79   40  106 1    
    80   41  107 1    
    81   41  108 1    
    82   41  109 1    
    83   42   43 2    
    84   42   44 am   BACKBONE|DICT|INTERRES
    85   44   45 1    
    86   44  110 1    
    87   45   46 1    
    88   45   47 1    
    89   45  111 1    
    90   46  112 1    
    91   46  113 1    
    92   46  114 1    
    93   47   48 2    
    94   47   49 am   BACKBONE|DICT|INTERRES
    95   49   50 1    
    96   49  115 1    
    97   50   51 1    
    98   50   52 1    
    99   50  116 1    
   100   51  117 1    
   101   51  118 1    
   102   51  119 1    
   103   52   53 2    
   104   52   54 am   BACKBONE|DICT|INTERRES
   105   54   55 1    
   106   54  120 1    
   107   55   56 1    
   108   55   57 1    
   109   55  121 1    
   110   56  122 1    
   111   56  123 1    
   112   56  124 1    
   113   57   58 2    
   114   57   59 am   BACKBONE|DICT|INTERRES
   115   59   60 1    
   116   59  125 1    
   117   60   61 1    
   118   60   62 1    
   119   60  126 1    
   120   61  127 1    
   121   61  128 1    
   122   61  129 1    
   123   62   63 2    
   124   62   64 am   BACKBONE|DICT|INTERRES
   125   64   65 1    
   126   64  130 1    
   127   65   66 1    
   128   65   69 1    
   129   65  131 1    
   130   66   67 am   BACKBONE|DICT|INTERRES
   131   66   68 2    
   132   67  132 1    
   133   67  133 1    
   134   69   70 1    
   135   69  134 1    
   136   69  135 1    
   137   70   71 1    
   138   71  136 1    
   139   71  137 1    
@<TRIPOS>SUBSTRUCTURE
     1 UNK         1 GROUP             0       ****    0 ROOT    
