@<TRIPOS>MOLECULE
3R137
137   139    1
SMALL
USER_CHARGES


@<TRIPOS>ATOM
      1 CA         25.2020   -6.6800   -2.9442 C.3       0 UNK        -0.2020 
      2 C          25.3066   -5.4890   -2.0044 C.2       0 UNK         0.4855 
      3 O          24.3001   -4.8367   -1.7244 O.2       0 UNK        -0.5197 
      4 N          26.5227   -5.2050   -1.5224 N.am      1 UNK        -0.4892 
      5 CA         26.8934   -4.0970   -0.6335 C.3       1 UNK         0.0835 
      6 C6         28.3962   -4.1536   -0.2231 C.3       12 UNK        -0.0855 
      7 S7         29.5438   -4.7829   -1.5096 S.3       12 UNK        -0.2931 
      8 C8         31.0769   -3.8593   -1.1729 C.3       12 UNK         0.0378 
      9 C9         31.1479   -2.5816   -1.9942 C.ar      12 UNK        -0.0802 
     10 C10        31.7707   -2.5790   -3.2457 C.ar      12 UNK        -0.0944 
     11 C11        31.8126   -1.4138   -4.0222 C.ar      12 UNK        -0.0787 
     12 C12        31.2350   -0.2403   -3.5235 C.ar      12 UNK        -0.0862 
     13 C13        30.6262   -0.2273   -2.2646 C.ar      12 UNK        -0.0733 
     14 C14        30.5926   -1.3996   -1.5045 C.ar      12 UNK        -0.0832 
     15 C15        30.0175    1.0479   -1.7010 C.3       12 UNK         0.0240 
     16 S16        28.2471    0.8281   -1.3412 S.3       12 UNK        -0.2522 
     17 C17        27.4361    1.6939   -2.7196 C.3       12 UNK        -0.0967 
     18 CA         27.7709    1.1911   -4.1481 C.3       5 UNK         0.0660 
     19 N          27.5823   -0.2559   -4.3447 N.am      5 UNK        -0.4015 
     20 C          27.8247   -0.9245   -5.4890 C.2       4 UNK         0.4946 
     21 O          28.2785   -0.4070   -6.5132 O.2       4 UNK        -0.5353 
     22 CA         27.4261   -2.4081   -5.5314 C.3       4 UNK         0.0277 
     23 CB         28.5050   -3.2977   -4.8971 C.3       4 UNK        -0.1981 
     24 N          26.1386   -2.6158   -4.8707 N.am      4 UNK        -0.4209 
     25 C          24.9518   -2.4165   -5.4655 C.2       3 UNK         0.4942 
     26 O          24.8247   -2.1778   -6.6662 O.2       3 UNK        -0.5208 
     27 CA         23.6885   -2.4629   -4.5851 C.3       3 UNK         0.0250 
     28 CB         22.9607   -3.8071   -4.7402 C.3       3 UNK        -0.1990 
     29 N          23.9629   -2.2074   -3.1687 N.am      3 UNK        -0.4232 
     30 C          24.3254   -1.0092   -2.6854 C.2       2 UNK         0.4993 
     31 O          24.3965    0.0077   -3.3762 O.2       2 UNK        -0.5286 
     32 CA         24.7381   -0.9417   -1.2032 C.3       2 UNK         0.0209 
     33 CB         23.5263   -0.5961   -0.3241 C.3       2 UNK        -0.1931 
     34 N          25.3703   -2.1693   -0.7046 N.am      2 UNK        -0.4546 
     35 C          26.4743   -2.7317   -1.2192 C.2       1 UNK         0.5154 
     36 O          27.0967   -2.2483   -2.1642 O.2       1 UNK        -0.5181 
     37 C          26.9732    2.0447   -5.1538 C.2       5 UNK         0.5014 
     38 O          27.4606    3.0946   -5.5743 O.2       5 UNK        -0.5248 
     39 N          25.7791    1.5728   -5.5412 N.am      6 UNK        -0.4434 
     40 CA         24.8939    2.1869   -6.5369 C.3       6 UNK         0.0363 
     41 CB         23.6258    1.3288   -6.6714 C.3       6 UNK        -0.1936 
     42 C          25.5324    2.4236   -7.9221 C.2       6 UNK         0.5081 
     43 O          25.0219    3.2533   -8.6757 O.2       6 UNK        -0.5248 
     44 N          26.6317    1.7227   -8.2299 N.am      7 UNK        -0.4718 
     45 CA         27.4372    1.9126   -9.4331 C.3       7 UNK         0.0273 
     46 CB         27.0532    0.8445  -10.4757 C.3       7 UNK        -0.1935 
     47 C          28.9349    1.8907   -9.0867 C.2       7 UNK         0.5018 
     48 O          29.7152    1.3531   -9.8717 O.2       7 UNK        -0.5186 
     49 N          29.3201    2.4606   -7.9304 N.am      8 UNK        -0.4240 
     50 CA         30.6544    2.3883   -7.3032 C.3       8 UNK         0.0235 
     51 CB         30.7213    3.3577   -6.1101 C.3       8 UNK        -0.2000 
     52 C          31.8792    2.6266   -8.2081 C.2       8 UNK         0.4941 
     53 O          32.9326    2.0491   -7.9394 O.2       8 UNK        -0.5273 
     54 N          31.7297    3.4509   -9.2554 N.am      9 UNK        -0.4262 
     55 CA         32.7572    3.7066  -10.2713 C.3       9 UNK         0.0264 
     56 CB         32.2888    4.8420  -11.1956 C.3       9 UNK        -0.1955 
     57 C          33.1335    2.4595  -11.0963 C.2       9 UNK         0.5031 
     58 O          34.2958    2.3241  -11.4820 O.2       9 UNK        -0.5390 
     59 N          32.1566    1.5758  -11.3378 N.am      10 UNK        -0.4204 
     60 CA         32.3416    0.2627  -11.9622 C.3       10 UNK         0.0237 
     61 CB         31.2281    0.0436  -13.0001 C.3       10 UNK        -0.1985 
     62 C          32.3184   -0.8663  -10.9162 C.2       10 UNK         0.4970 
     63 O          32.9480   -1.9003  -11.1388 O.2       10 UNK        -0.4914 
     64 N          31.5974   -0.6360   -9.8116 N.am      11 UNK        -0.4285 
     65 CA         31.2558   -1.5571   -8.7281 C.3       11 UNK         0.1007 
     66 C          30.1492   -2.5435   -9.1813 C.2       11 UNK         0.5703 
     67 N          28.9133   -2.3176   -8.7568 N.am      11 UNK        -0.7361 
     68 O          30.3973   -3.5048   -9.9059 O.2       11 UNK        -0.4986 
     69 C69        32.4882   -2.2348   -8.0716 C.3       12 UNK        -0.0947 
     70 S70        32.0936   -2.8524   -6.4063 S.3       12 UNK        -0.2240 
     71 C71        32.4997   -1.3979   -5.3853 C.3       12 UNK         0.0194 
     72 H72        24.2600   -7.2051   -2.7872 H         1 UNK         0.0906 
     73 H73        25.2410   -6.3484   -3.9812 H         1 UNK         0.0906 
     74 H74        26.0127   -7.3902   -2.7823 H         1 UNK         0.0906 
     75 H75        27.3142   -5.7543   -1.8300 H         1 UNK         0.3140 
     76 H76        26.3154   -4.2356    0.2828 H         1 UNK         0.1085 
     77 H77        28.4988   -4.8239    0.6318 H         1 UNK         0.0836 
     78 H78        28.7370   -3.1825    0.1390 H         1 UNK         0.0836 
     79 H79        31.9275   -4.4985   -1.4142 H         1 UNK         0.0731 
     80 H80        31.1595   -3.6391   -0.1074 H         1 UNK         0.0731 
     81 H81        32.2131   -3.4917   -3.6203 H         1 UNK         0.1312 
     82 H82        31.2688    0.6664   -4.1116 H         1 UNK         0.1406 
     83 H83        30.1167   -1.3902   -0.5341 H         1 UNK         0.1631 
     84 H84        30.1676    1.8955   -2.3711 H         1 UNK         0.0717 
     85 H85        30.5323    1.2990   -0.7727 H         1 UNK         0.0717 
     86 H86        26.3610    1.6398   -2.5406 H         1 UNK         0.0934 
     87 H87        27.6927    2.7517   -2.6274 H         1 UNK         0.0934 
     88 H88        28.8263    1.3817   -4.3399 H         1 UNK         0.0739 
     89 H89        27.2890   -0.7869   -3.5299 H         1 UNK         0.3093 
     90 H90        27.3275   -2.7078   -6.5756 H         1 UNK         0.0818 
     91 H91        28.8029   -2.9486   -3.9087 H         1 UNK         0.0819 
     92 H92        28.1723   -4.3312   -4.8024 H         1 UNK         0.0819 
     93 H93        29.4018   -3.3025   -5.5140 H         1 UNK         0.0819 
     94 H94        26.1762   -2.7512   -3.8662 H         1 UNK         0.3041 
     95 H95        23.0187   -1.6774   -4.9424 H         1 UNK         0.0784 
     96 H96        22.6831   -3.9809   -5.7807 H         1 UNK         0.0793 
     97 H97        23.5835   -4.6436   -4.4273 H         1 UNK         0.0793 
     98 H98        22.0435   -3.8330   -4.1516 H         1 UNK         0.0793 
     99 H99        23.9573   -3.0101   -2.5450 H         1 UNK         0.3024 
    100 H100       25.4679   -0.1368   -1.1077 H         1 UNK         0.1171 
    101 H101       22.7705   -1.3821   -0.3505 H         1 UNK         0.0786 
    102 H102       23.0504    0.3260   -0.6615 H         1 UNK         0.0786 
    103 H103       23.8195   -0.4448    0.7150 H         1 UNK         0.0786 
    104 H104       24.8804   -2.6566    0.0322 H         1 UNK         0.2977 
    105 H105       25.4199    0.7528   -5.0638 H         1 UNK         0.3127 
    106 H106       24.6057    3.1652   -6.1475 H         1 UNK         0.0770 
    107 H107       23.8537    0.3352   -7.0584 H         1 UNK         0.0814 
    108 H108       22.9131    1.7892   -7.3569 H         1 UNK         0.0814 
    109 H109       23.1211    1.2089   -5.7124 H         1 UNK         0.0814 
    110 H110       26.9988    1.0617   -7.5526 H         1 UNK         0.2983 
    111 H111       27.2437    2.8977   -9.8629 H         1 UNK         0.0947 
    112 H112       27.6005    0.9883  -11.4083 H         1 UNK         0.0806 
    113 H113       25.9910    0.8891  -10.7161 H         1 UNK         0.0806 
    114 H114       27.2744   -0.1618  -10.1178 H         1 UNK         0.0806 
    115 H115       28.5939    2.8666   -7.3493 H         1 UNK         0.3000 
    116 H116       30.7501    1.3728   -6.9144 H         1 UNK         0.0850 
    117 H117       31.7157    3.3646   -5.6605 H         1 UNK         0.0810 
    118 H118       30.0276    3.0793   -5.3208 H         1 UNK         0.0810 
    119 H119       30.4931    4.3809   -6.4107 H         1 UNK         0.0810 
    120 H120       30.8299    3.8879   -9.3927 H         1 UNK         0.3040 
    121 H121       33.6589    4.0389   -9.7524 H         1 UNK         0.0766 
    122 H122       32.1050    5.7597  -10.6365 H         1 UNK         0.0812 
    123 H123       31.3719    4.5806  -11.7256 H         1 UNK         0.0812 
    124 H124       33.0459    5.0694  -11.9476 H         1 UNK         0.0812 
    125 H125       31.2360    1.7590  -10.9468 H         1 UNK         0.3205 
    126 H126       33.3034    0.2194  -12.4777 H         1 UNK         0.0754 
    127 H127       31.3365   -0.9245  -13.4910 H         1 UNK         0.0769 
    128 H128       31.2576    0.8068  -13.7780 H         1 UNK         0.0769 
    129 H129       30.2379    0.0697  -12.5424 H         1 UNK         0.0769 
    130 H130       31.0386    0.2138   -9.8002 H         1 UNK         0.2981 
    131 H131       30.8157   -0.9033   -7.9732 H         1 UNK         0.0541 
    132 H132       28.7121   -1.5477   -8.1282 H         1 UNK         0.3459 
    133 H133       28.1771   -2.9408   -9.0458 H         1 UNK         0.3459 
    134 H134       32.8550   -3.0640   -8.6785 H         1 UNK         0.0612 
    135 H135       33.3151   -1.5271   -7.9920 H         1 UNK         0.0612 
    136 H136       33.5799   -1.3536   -5.2420 H         1 UNK         0.0624 
    137 H137       32.2200   -0.4964   -5.9327 H         1 UNK         0.0624 
@<TRIPOS>BOND
     1    1    2 1    
     2    1   72 1    
     3    1   73 1    
     4    1   74 1    
     5    2    3 2    
     6    2    4 am   BACKBONE|DICT|INTERRES
     7    4    5 1    
     8    4   75 1    
     9    5    6 1    
    10    5   35 1    
    11    5   76 1    
    12    6    7 1    
    13    6   77 1    
    14    6   78 1    
    15    7    8 1    
    16    8    9 1    
    17    8   79 1    
    18    8   80 1    
    19    9   10 ar   
    20    9   14 ar   
    21   10   11 ar   
    22   10   81 1    
    23   11   12 ar   
    24   11   71 1    
    25   12   13 ar   
    26   12   82 1    
    27   13   14 ar   
    28   13   15 1    
    29   14   83 1    
    30   15   16 1    
    31   15   84 1    
    32   15   85 1    
    33   16   17 1    
    34   17   18 1    
    35   17   86 1    
    36   17   87 1    
    37   18   19 1    
    38   18   37 1    
    39   18   88 1    
    40   19   20 am   BACKBONE|DICT|INTERRES
    41   19   89 1    
    42   20   21 2    
    43   20   22 1    
    44   22   23 1    
    45   22   24 1    
    46   22   90 1    
    47   23   91 1    
    48   23   92 1    
    49   23   93 1    
    50   24   25 am   BACKBONE|DICT|INTERRES
    51   24   94 1    
    52   25   26 2    
    53   25   27 1    
    54   27   28 1    
    55   27   29 1    
    56   27   95 1    
    57   28   96 1    
    58   28   97 1    
    59   28   98 1    
    60   29   30 am   BACKBONE|DICT|INTERRES
    61   29   99 1    
    62   30   31 2    
    63   30   32 1    
    64   32   33 1    
    65   32   34 1    
    66   32  100 1    
    67   33  101 1    
    68   33  102 1    
    69   33  103 1    
    70   34   35 am   BACKBONE|DICT|INTERRES
    71   34  104 1    
    72   35   36 2    
    73   37   38 2    
    74   37   39 am   BACKBONE|DICT|INTERRES
    75   39   40 1    
    76   39  105 1    
    77   40   41 1    
    78   40   42 1    
    79   40  106 1    
    80   41  107 1    
    81   41  108 1    
    82   41  109 1    
    83   42   43 2    
    84   42   44 am   BACKBONE|DICT|INTERRES
    85   44   45 1    
    86   44  110 1    
    87   45   46 1    
    88   45   47 1    
    89   45  111 1    
    90   46  112 1    
    91   46  113 1    
    92   46  114 1    
    93   47   48 2    
    94   47   49 am   BACKBONE|DICT|INTERRES
    95   49   50 1    
    96   49  115 1    
    97   50   51 1    
    98   50   52 1    
    99   50  116 1    
   100   51  117 1    
   101   51  118 1    
   102   51  119 1    
   103   52   53 2    
   104   52   54 am   BACKBONE|DICT|INTERRES
   105   54   55 1    
   106   54  120 1    
   107   55   56 1    
   108   55   57 1    
   109   55  121 1    
   110   56  122 1    
   111   56  123 1    
   112   56  124 1    
   113   57   58 2    
   114   57   59 am   BACKBONE|DICT|INTERRES
   115   59   60 1    
   116   59  125 1    
   117   60   61 1    
   118   60   62 1    
   119   60  126 1    
   120   61  127 1    
   121   61  128 1    
   122   61  129 1    
   123   62   63 2    
   124   62   64 am   BACKBONE|DICT|INTERRES
   125   64   65 1    
   126   64  130 1    
   127   65   66 1    
   128   65   69 1    
   129   65  131 1    
   130   66   67 am   BACKBONE|DICT|INTERRES
   131   66   68 2    
   132   67  132 1    
   133   67  133 1    
   134   69   70 1    
   135   69  134 1    
   136   69  135 1    
   137   70   71 1    
   138   71  136 1    
   139   71  137 1    
@<TRIPOS>SUBSTRUCTURE
     1 UNK         1 GROUP             0       ****    0 ROOT    
