@<TRIPOS>MOLECULE
3R137
137   139    1
SMALL
USER_CHARGES


@<TRIPOS>ATOM
      1 CA         30.8400    1.2187    0.1180 C.3       0 UNK        -0.2020 
      2 C          29.9975    0.4337   -0.8750 C.2       0 UNK         0.4855 
      3 O          29.5268    1.0007   -1.8606 O.2       0 UNK        -0.5197 
      4 N          29.7903   -0.8643   -0.6166 N.am      1 UNK        -0.4892 
      5 CA         29.0786   -1.8315   -1.4686 C.3       1 UNK         0.0835 
      6 C6         29.4707   -3.2938   -1.1133 C.3       12 UNK        -0.0855 
      7 S7         31.2741   -3.5834   -1.0567 S.3       12 UNK        -0.2931 
      8 C8         31.4683   -5.0912   -2.0583 C.3       12 UNK         0.0378 
      9 C9         31.4605   -4.7966   -3.5513 C.ar      12 UNK        -0.0802 
     10 C10        32.6234   -4.3408   -4.1808 C.ar      12 UNK        -0.0944 
     11 C11        32.6397   -4.1065   -5.5588 C.ar      12 UNK        -0.0787 
     12 C12        31.4761   -4.3193   -6.3049 C.ar      12 UNK        -0.0862 
     13 C13        30.3041   -4.7701   -5.6886 C.ar      12 UNK        -0.0733 
     14 C14        30.3075   -5.0164   -4.3109 C.ar      12 UNK        -0.0832 
     15 C15        29.0502   -5.0086   -6.5273 C.3       12 UNK         0.0240 
     16 S16        27.5329   -4.2999   -5.8002 S.3       12 UNK        -0.2522 
     17 C17        27.9658   -2.5332   -5.6999 C.3       12 UNK        -0.0967 
     18 CA         27.3164   -1.6876   -6.8199 C.3       5 UNK         0.0660 
     19 N          25.8492   -1.7501   -6.8256 N.am      5 UNK        -0.4015 
     20 C          25.0533   -1.1720   -7.7401 C.2       4 UNK         0.4946 
     21 O          25.4729   -0.4842   -8.6705 O.2       4 UNK        -0.5353 
     22 CA         23.5351   -1.3783   -7.6085 C.3       4 UNK         0.0277 
     23 CB         23.0790   -2.5481   -8.4949 C.3       4 UNK        -0.1981 
     24 N          23.1114   -1.6181   -6.2292 N.am      4 UNK        -0.4209 
     25 C          23.0174   -0.6675   -5.2898 C.2       3 UNK         0.4942 
     26 O          23.1696    0.5348   -5.5168 O.2       3 UNK        -0.5208 
     27 CA         22.7220   -1.1326   -3.8468 C.3       3 UNK         0.0250 
     28 CB         22.7110   -2.6692   -3.6698 C.3       3 UNK        -0.1990 
     29 N          23.6296   -0.5381   -2.8557 N.am      3 UNK        -0.4232 
     30 C          24.9706   -0.4993   -2.9027 C.2       2 UNK         0.4993 
     31 O          25.6366   -0.8707   -3.8728 O.2       2 UNK        -0.5286 
     32 CA         25.6948    0.0788   -1.6699 C.3       2 UNK         0.0209 
     33 CB         24.9578   -0.1864   -0.3368 C.3       2 UNK        -0.1931 
     34 N          27.0893   -0.3778   -1.5929 N.am      2 UNK        -0.4546 
     35 C          27.5405   -1.6321   -1.4432 C.2       1 UNK         0.5154 
     36 O          26.8007   -2.6031   -1.2678 O.2       1 UNK        -0.5181 
     37 C          27.8248   -0.2408   -6.7421 C.2       5 UNK         0.5014 
     38 O          28.6476    0.1516   -7.5679 O.2       5 UNK        -0.5248 
     39 N          27.2767    0.5425   -5.8043 N.am      6 UNK        -0.4434 
     40 CA         27.6022    1.9587   -5.6109 C.3       6 UNK         0.0363 
     41 CB         26.8918    2.4757   -4.3520 C.3       6 UNK        -0.1936 
     42 C          27.2850    2.8601   -6.8209 C.2       6 UNK         0.5081 
     43 O          27.8829    3.9298   -6.9370 O.2       6 UNK        -0.5248 
     44 N          26.3696    2.4244   -7.6963 N.am      7 UNK        -0.4718 
     45 CA         26.0354    3.1067   -8.9443 C.3       7 UNK         0.0273 
     46 CB         24.5376    2.9230   -9.2437 C.3       7 UNK        -0.1935 
     47 C          26.8954    2.5965  -10.1110 C.2       7 UNK         0.5018 
     48 O          27.4753    3.4090  -10.8322 O.2       7 UNK        -0.5186 
     49 N          26.9359    1.2701  -10.2981 N.am      8 UNK        -0.4240 
     50 CA         27.5388    0.6221  -11.4640 C.3       8 UNK         0.0235 
     51 CB         26.8976   -0.7621  -11.6595 C.3       8 UNK        -0.2000 
     52 C          29.0669    0.4912  -11.3865 C.2       8 UNK         0.4941 
     53 O          29.7342    0.6917  -12.4026 O.2       8 UNK        -0.5273 
     54 N          29.5884    0.1215  -10.2107 N.am      9 UNK        -0.4262 
     55 CA         31.0007   -0.2042   -9.9893 C.3       9 UNK         0.0264 
     56 CB         31.0857   -1.6084   -9.3666 C.3       9 UNK        -0.1955 
     57 C          31.7114    0.8202   -9.0905 C.2       9 UNK         0.5031 
     58 O          32.9382    0.9040   -9.1408 O.2       9 UNK        -0.5390 
     59 N          30.9476    1.5512   -8.2664 N.am      10 UNK        -0.4204 
     60 CA         31.3440    2.5520   -7.2649 C.3       10 UNK         0.0237 
     61 CB         32.2236    3.6669   -7.8647 C.3       10 UNK        -0.1985 
     62 C          31.9698    1.9557   -5.9910 C.2       10 UNK         0.4970 
     63 O          31.7769    2.5239   -4.9159 O.2       10 UNK        -0.4914 
     64 N          32.6886    0.8355   -6.1170 N.am      11 UNK        -0.4285 
     65 CA         33.2073    0.0267   -5.0071 C.3       11 UNK         0.1007 
     66 C          32.1014   -0.6800   -4.1744 C.2       11 UNK         0.5703 
     67 N          32.4396   -1.0991   -2.9623 N.am      11 UNK        -0.7361 
     68 O          30.9699   -0.8723   -4.6148 O.2       11 UNK        -0.4986 
     69 C69        34.3095   -0.9594   -5.4830 C.3       12 UNK        -0.0947 
     70 S70        33.8404   -1.9876   -6.9181 S.3       12 UNK        -0.2240 
     71 C71        33.9248   -3.6811   -6.2562 C.3       12 UNK         0.0194 
     72 H72        31.1893    0.5951    0.9407 H         1 UNK         0.0906 
     73 H73        31.7121    1.6376   -0.3835 H         1 UNK         0.0906 
     74 H74        30.2594    2.0404    0.5363 H         1 UNK         0.0906 
     75 H75        30.1894   -1.2623    0.2221 H         1 UNK         0.3140 
     76 H76        29.3853   -1.6523   -2.5019 H         1 UNK         0.1085 
     77 H77        29.0666   -3.5695   -0.1371 H         1 UNK         0.0836 
     78 H78        29.0194   -3.9824   -1.8293 H         1 UNK         0.0836 
     79 H79        32.4149   -5.5639   -1.7922 H         1 UNK         0.0731 
     80 H80        30.6910   -5.8113   -1.7975 H         1 UNK         0.0731 
     81 H81        33.5191   -4.1807   -3.5964 H         1 UNK         0.1312 
     82 H82        31.4912   -4.1402   -7.3713 H         1 UNK         0.1406 
     83 H83        29.4090   -5.3806   -3.8320 H         1 UNK         0.1631 
     84 H84        28.9109   -6.0833   -6.6500 H         1 UNK         0.0717 
     85 H85        29.1733   -4.5965   -7.5303 H         1 UNK         0.0717 
     86 H86        29.0513   -2.4231   -5.7298 H         1 UNK         0.0934 
     87 H87        27.6686   -2.1743   -4.7140 H         1 UNK         0.0934 
     88 H88        27.6517   -2.0903   -7.7782 H         1 UNK         0.0739 
     89 H89        25.4286   -2.2483   -6.0551 H         1 UNK         0.3093 
     90 H90        23.0486   -0.4691   -7.9691 H         1 UNK         0.0818 
     91 H91        21.9955   -2.6653   -8.4714 H         1 UNK         0.0819 
     92 H92        23.3624   -2.3807   -9.5352 H         1 UNK         0.0819 
     93 H93        23.5273   -3.4926   -8.1838 H         1 UNK         0.0819 
     94 H94        22.9529   -2.5780   -5.9584 H         1 UNK         0.3041 
     95 H95        21.7225   -0.7635   -3.6121 H         1 UNK         0.0784 
     96 H96        21.9577   -3.1429   -4.3005 H         1 UNK         0.0793 
     97 H97        23.6798   -3.1141   -3.9025 H         1 UNK         0.0793 
     98 H98        22.4699   -2.9396   -2.6416 H         1 UNK         0.0793 
     99 H99        23.1797   -0.1542   -2.0370 H         1 UNK         0.3024 
    100 H100       25.7332    1.1588   -1.8159 H         1 UNK         0.1171 
    101 H101       25.5517    0.1483    0.5139 H         1 UNK         0.0786 
    102 H102       24.7431   -1.2462   -0.1934 H         1 UNK         0.0786 
    103 H103       24.0106    0.3514   -0.2886 H         1 UNK         0.0786 
    104 H104       27.8033    0.3298   -1.7544 H         1 UNK         0.2977 
    105 H105       26.6077    0.1226   -5.1605 H         1 UNK         0.3127 
    106 H106       28.6787    2.0222   -5.4388 H         1 UNK         0.0770 
    107 H107       25.8121    2.3299   -4.4082 H         1 UNK         0.0814 
    108 H108       27.0732    3.5417   -4.2069 H         1 UNK         0.0814 
    109 H109       27.2630    1.9668   -3.4636 H         1 UNK         0.0814 
    110 H110       25.9537    1.5145   -7.5479 H         1 UNK         0.2983 
    111 H111       26.2210    4.1783   -8.8390 H         1 UNK         0.0947 
    112 H112       24.2611    3.4282  -10.1701 H         1 UNK         0.0806 
    113 H113       23.9223    3.3450   -8.4490 H         1 UNK         0.0806 
    114 H114       24.2657    1.8725   -9.3521 H         1 UNK         0.0806 
    115 H115       26.4217    0.6646   -9.6582 H         1 UNK         0.3000 
    116 H116       27.3060    1.2223  -12.3466 H         1 UNK         0.0850 
    117 H117       27.3007   -1.2596  -12.5427 H         1 UNK         0.0810 
    118 H118       25.8188   -0.6831  -11.7953 H         1 UNK         0.0810 
    119 H119       27.0779   -1.4155  -10.8047 H         1 UNK         0.0810 
    120 H120       28.9760    0.0261   -9.4042 H         1 UNK         0.3040 
    121 H121       31.5383   -0.2264  -10.9394 H         1 UNK         0.0766 
    122 H122       32.1223   -1.9392   -9.3036 H         1 UNK         0.0812 
    123 H123       30.6705   -1.6336   -8.3577 H         1 UNK         0.0812 
    124 H124       30.5517   -2.3440   -9.9681 H         1 UNK         0.0812 
    125 H125       29.9725    1.2665   -8.2021 H         1 UNK         0.3205 
    126 H126       30.4115    3.0201   -6.9504 H         1 UNK         0.0754 
    127 H127       32.3760    4.4686   -7.1410 H         1 UNK         0.0769 
    128 H128       31.7572    4.1091   -8.7451 H         1 UNK         0.0769 
    129 H129       33.2103    3.3029   -8.1518 H         1 UNK         0.0769 
    130 H130       32.8194    0.4508   -7.0439 H         1 UNK         0.2981 
    131 H131       33.6882    0.7291   -4.3233 H         1 UNK         0.0541 
    132 H132       33.3679   -0.9544   -2.6000 H         1 UNK         0.3459 
    133 H133       31.7633   -1.6099   -2.4154 H         1 UNK         0.3459 
    134 H134       34.6455   -1.5953   -4.6623 H         1 UNK         0.0612 
    135 H135       35.1894   -0.3872   -5.7799 H         1 UNK         0.0612 
    136 H136       34.1096   -4.3629   -7.0873 H         1 UNK         0.0624 
    137 H137       34.7861   -3.7768   -5.5934 H         1 UNK         0.0624 
@<TRIPOS>BOND
     1    1    2 1    
     2    1   72 1    
     3    1   73 1    
     4    1   74 1    
     5    2    3 2    
     6    2    4 am   BACKBONE|DICT|INTERRES
     7    4    5 1    
     8    4   75 1    
     9    5    6 1    
    10    5   35 1    
    11    5   76 1    
    12    6    7 1    
    13    6   77 1    
    14    6   78 1    
    15    7    8 1    
    16    8    9 1    
    17    8   79 1    
    18    8   80 1    
    19    9   10 ar   
    20    9   14 ar   
    21   10   11 ar   
    22   10   81 1    
    23   11   12 ar   
    24   11   71 1    
    25   12   13 ar   
    26   12   82 1    
    27   13   14 ar   
    28   13   15 1    
    29   14   83 1    
    30   15   16 1    
    31   15   84 1    
    32   15   85 1    
    33   16   17 1    
    34   17   18 1    
    35   17   86 1    
    36   17   87 1    
    37   18   19 1    
    38   18   37 1    
    39   18   88 1    
    40   19   20 am   BACKBONE|DICT|INTERRES
    41   19   89 1    
    42   20   21 2    
    43   20   22 1    
    44   22   23 1    
    45   22   24 1    
    46   22   90 1    
    47   23   91 1    
    48   23   92 1    
    49   23   93 1    
    50   24   25 am   BACKBONE|DICT|INTERRES
    51   24   94 1    
    52   25   26 2    
    53   25   27 1    
    54   27   28 1    
    55   27   29 1    
    56   27   95 1    
    57   28   96 1    
    58   28   97 1    
    59   28   98 1    
    60   29   30 am   BACKBONE|DICT|INTERRES
    61   29   99 1    
    62   30   31 2    
    63   30   32 1    
    64   32   33 1    
    65   32   34 1    
    66   32  100 1    
    67   33  101 1    
    68   33  102 1    
    69   33  103 1    
    70   34   35 am   BACKBONE|DICT|INTERRES
    71   34  104 1    
    72   35   36 2    
    73   37   38 2    
    74   37   39 am   BACKBONE|DICT|INTERRES
    75   39   40 1    
    76   39  105 1    
    77   40   41 1    
    78   40   42 1    
    79   40  106 1    
    80   41  107 1    
    81   41  108 1    
    82   41  109 1    
    83   42   43 2    
    84   42   44 am   BACKBONE|DICT|INTERRES
    85   44   45 1    
    86   44  110 1    
    87   45   46 1    
    88   45   47 1    
    89   45  111 1    
    90   46  112 1    
    91   46  113 1    
    92   46  114 1    
    93   47   48 2    
    94   47   49 am   BACKBONE|DICT|INTERRES
    95   49   50 1    
    96   49  115 1    
    97   50   51 1    
    98   50   52 1    
    99   50  116 1    
   100   51  117 1    
   101   51  118 1    
   102   51  119 1    
   103   52   53 2    
   104   52   54 am   BACKBONE|DICT|INTERRES
   105   54   55 1    
   106   54  120 1    
   107   55   56 1    
   108   55   57 1    
   109   55  121 1    
   110   56  122 1    
   111   56  123 1    
   112   56  124 1    
   113   57   58 2    
   114   57   59 am   BACKBONE|DICT|INTERRES
   115   59   60 1    
   116   59  125 1    
   117   60   61 1    
   118   60   62 1    
   119   60  126 1    
   120   61  127 1    
   121   61  128 1    
   122   61  129 1    
   123   62   63 2    
   124   62   64 am   BACKBONE|DICT|INTERRES
   125   64   65 1    
   126   64  130 1    
   127   65   66 1    
   128   65   69 1    
   129   65  131 1    
   130   66   67 am   BACKBONE|DICT|INTERRES
   131   66   68 2    
   132   67  132 1    
   133   67  133 1    
   134   69   70 1    
   135   69  134 1    
   136   69  135 1    
   137   70   71 1    
   138   71  136 1    
   139   71  137 1    
@<TRIPOS>SUBSTRUCTURE
     1 UNK         1 GROUP             0       ****    0 ROOT    
