@<TRIPOS>MOLECULE
3R137
137   139    1
SMALL
USER_CHARGES


@<TRIPOS>ATOM
      1 CA         29.4449   -2.0023    3.7170 C.3       0 UNK        -0.2020 
      2 C          29.1003   -1.5120    2.3184 C.2       0 UNK         0.4855 
      3 O          28.7376   -0.3470    2.1499 O.2       0 UNK        -0.5197 
      4 N          29.2196   -2.3882    1.3142 N.am      1 UNK        -0.4892 
      5 CA         28.8574   -2.1200   -0.0811 C.3       1 UNK         0.0835 
      6 C6         29.6320   -3.0453   -1.0534 C.3       12 UNK        -0.0855 
      7 S7         29.3607   -4.8355   -0.7907 S.3       12 UNK        -0.2931 
      8 C8         30.7555   -5.5504   -1.7231 C.3       12 UNK         0.0378 
      9 C9         30.7871   -5.0520   -3.1610 C.ar      12 UNK        -0.0802 
     10 C10        31.7436   -4.1122   -3.5579 C.ar      12 UNK        -0.0944 
     11 C11        31.7410   -3.6031   -4.8595 C.ar      12 UNK        -0.0787 
     12 C12        30.7881   -4.0593   -5.7733 C.ar      12 UNK        -0.0862 
     13 C13        29.8080   -4.9770   -5.3795 C.ar      12 UNK        -0.0733 
     14 C14        29.8262   -5.4873   -4.0784 C.ar      12 UNK        -0.0832 
     15 C15        28.6880   -5.3628   -6.3376 C.3       12 UNK         0.0240 
     16 S16        27.1037   -4.5771   -5.8755 S.3       12 UNK        -0.2522 
     17 C17        27.5309   -2.8046   -5.9319 C.3       12 UNK        -0.0967 
     18 CA         26.6815   -2.0135   -6.9525 C.3       5 UNK         0.0660 
     19 N          25.3072   -1.8016   -6.5079 N.am      5 UNK        -0.4015 
     20 C          24.2824   -1.5267   -7.3265 C.2       4 UNK         0.4946 
     21 O          24.3510   -1.5653   -8.5554 O.2       4 UNK        -0.5353 
     22 CA         22.9563   -1.1129   -6.6637 C.3       4 UNK         0.0277 
     23 CB         22.0642   -2.3428   -6.4299 C.3       4 UNK        -0.1981 
     24 N          23.1398   -0.3962   -5.3979 N.am      4 UNK        -0.4209 
     25 C          23.7472    0.7935   -5.2704 C.2       3 UNK         0.4942 
     26 O          24.1911    1.4447   -6.2152 O.2       3 UNK        -0.5208 
     27 CA         23.9379    1.3160   -3.8368 C.3       3 UNK         0.0250 
     28 CB         22.6986    2.1002   -3.3771 C.3       3 UNK        -0.1990 
     29 N          24.2386    0.2527   -2.8700 N.am      3 UNK        -0.4232 
     30 C          25.3396   -0.5097   -2.9054 C.2       2 UNK         0.4993 
     31 O          26.2170   -0.4134   -3.7680 O.2       2 UNK        -0.5286 
     32 CA         25.4684   -1.5965   -1.8382 C.3       2 UNK         0.0209 
     33 CB         24.9826   -2.9517   -2.3865 C.3       2 UNK        -0.1931 
     34 N          26.8734   -1.6820   -1.4532 N.am      2 UNK        -0.4546 
     35 C          27.3275   -2.1793   -0.2976 C.2       1 UNK         0.5154 
     36 O          26.5911   -2.6695    0.5646 O.2       1 UNK        -0.5181 
     37 C          27.3383   -0.6591   -7.2583 C.2       5 UNK         0.5014 
     38 O          27.7731   -0.4481   -8.3887 O.2       5 UNK        -0.5248 
     39 N          27.4064    0.2278   -6.2541 N.am      6 UNK        -0.4434 
     40 CA         28.1611    1.4870   -6.2817 C.3       6 UNK         0.0363 
     41 CB         28.0683    2.1604   -4.9040 C.3       6 UNK        -0.1936 
     42 C          27.7659    2.4752   -7.3952 C.2       6 UNK         0.5081 
     43 O          28.5871    3.3105   -7.7732 O.2       6 UNK        -0.5248 
     44 N          26.5362    2.3637   -7.9130 N.am      7 UNK        -0.4718 
     45 CA         26.0535    3.1116   -9.0749 C.3       7 UNK         0.0273 
     46 CB         24.5237    2.9768   -9.1505 C.3       7 UNK        -0.1935 
     47 C          26.6919    2.6849  -10.4133 C.2       7 UNK         0.5018 
     48 O          26.6309    3.4675  -11.3633 O.2       7 UNK        -0.5186 
     49 N          27.2565    1.4702  -10.4881 N.am      8 UNK        -0.4240 
     50 CA         27.8053    0.8810  -11.7147 C.3       8 UNK         0.0235 
     51 CB         26.9061   -0.2873  -12.1536 C.3       8 UNK        -0.2000 
     52 C          29.2583    0.4059  -11.5575 C.2       8 UNK         0.4941 
     53 O          30.0365    0.5435  -12.5031 O.2       8 UNK        -0.5273 
     54 N          29.5998   -0.1658  -10.3962 N.am      9 UNK        -0.4262 
     55 CA         30.9280   -0.6834  -10.0667 C.3       9 UNK         0.0264 
     56 CB         30.8081   -1.5975   -8.8342 C.3       9 UNK        -0.1955 
     57 C          31.9375    0.4421   -9.7946 C.2       9 UNK         0.5031 
     58 O          31.5459    1.5669   -9.4749 O.2       9 UNK        -0.5390 
     59 N          33.2309    0.0957   -9.8590 N.am      10 UNK        -0.4204 
     60 CA         34.3629    0.9929   -9.5908 C.3       10 UNK         0.0237 
     61 CB         35.6776    0.2477   -9.8748 C.3       10 UNK        -0.1985 
     62 C          34.3811    1.5916   -8.1705 C.2       10 UNK         0.4970 
     63 O          34.9421    2.6721   -7.9844 O.2       10 UNK        -0.4914 
     64 N          33.7598    0.8967   -7.2087 N.am      11 UNK        -0.4285 
     65 CA         33.5075    1.3901   -5.8485 C.3       11 UNK         0.1007 
     66 C          32.3517    2.4318   -5.7345 C.2       11 UNK         0.5703 
     67 N          31.5955    2.7174   -6.7886 N.am      11 UNK        -0.7361 
     68 O          32.1495    3.0056   -4.6670 O.2       11 UNK        -0.4986 
     69 C69        33.3657    0.2212   -4.8378 C.3       12 UNK        -0.0947 
     70 S70        31.9384   -0.8782   -5.1480 S.3       12 UNK        -0.2240 
     71 C71        32.7281   -2.5164   -5.2563 C.3       12 UNK         0.0194 
     72 H72        30.2494   -1.4002    4.1386 H         1 UNK         0.0906 
     73 H73        28.5762   -1.9156    4.3691 H         1 UNK         0.0906 
     74 H74        29.7658   -3.0439    3.7167 H         1 UNK         0.0906 
     75 H75        29.4796   -3.3452    1.5088 H         1 UNK         0.3140 
     76 H76        29.1581   -1.0939   -0.3068 H         1 UNK         0.1085 
     77 H77        29.3849   -2.8049   -2.0895 H         1 UNK         0.0836 
     78 H78        30.7002   -2.8441   -0.9564 H         1 UNK         0.0836 
     79 H79        31.6885   -5.3123   -1.2098 H         1 UNK         0.0731 
     80 H80        30.6704   -6.6380   -1.7156 H         1 UNK         0.0731 
     81 H81        32.4700   -3.7499   -2.8432 H         1 UNK         0.1312 
     82 H82        30.7745   -3.6526   -6.7745 H         1 UNK         0.1406 
     83 H83        29.0614   -6.1849   -3.7641 H         1 UNK         0.1631 
     84 H84        28.5627   -6.4464   -6.3343 H         1 UNK         0.0717 
     85 H85        28.9399   -5.0852   -7.3624 H         1 UNK         0.0717 
     86 H86        27.4327   -2.3971   -4.9252 H         1 UNK         0.0934 
     87 H87        28.5849   -2.6997   -6.1832 H         1 UNK         0.0934 
     88 H88        26.6648   -2.5799   -7.8868 H         1 UNK         0.0739 
     89 H89        25.1682   -1.7155   -5.5121 H         1 UNK         0.3093 
     90 H90        22.4422   -0.4402   -7.3537 H         1 UNK         0.0818 
     91 H91        21.0872   -2.0571   -6.0394 H         1 UNK         0.0819 
     92 H92        21.8923   -2.8816   -7.3629 H         1 UNK         0.0819 
     93 H93        22.5163   -3.0445   -5.7277 H         1 UNK         0.0819 
     94 H94        22.7966   -0.8485   -4.5633 H         1 UNK         0.3041 
     95 H95        24.7870    2.0021   -3.8499 H         1 UNK         0.0784 
     96 H96        22.4689    2.9080   -4.0736 H         1 UNK         0.0793 
     97 H97        21.8149    1.4639   -3.3135 H         1 UNK         0.0793 
     98 H98        22.8569    2.5548   -2.3989 H         1 UNK         0.0793 
     99 H99        23.5626    0.1071   -2.1333 H         1 UNK         0.3024 
    100 H100       24.8723   -1.3152   -0.9668 H         1 UNK         0.1171 
    101 H101       23.9413   -2.8975   -2.7065 H         1 UNK         0.0786 
    102 H102       25.0456   -3.7323   -1.6282 H         1 UNK         0.0786 
    103 H103       25.5740   -3.2755   -3.2442 H         1 UNK         0.0786 
    104 H104       27.5114   -1.2709   -2.1234 H         1 UNK         0.2977 
    105 H105       26.9855   -0.0160   -5.3579 H         1 UNK         0.3127 
    106 H106       29.2050    1.2190   -6.4564 H         1 UNK         0.0770 
    107 H107       27.0410    2.4312   -4.6599 H         1 UNK         0.0814 
    108 H108       28.6656    3.0727   -4.8735 H         1 UNK         0.0814 
    109 H109       28.4403    1.5052   -4.1162 H         1 UNK         0.0814 
    110 H110       25.8879    1.7108   -7.4856 H         1 UNK         0.2983 
    111 H111       26.2966    4.1657   -8.9240 H         1 UNK         0.0947 
    112 H112       24.1209    3.5286  -10.0009 H         1 UNK         0.0806 
    113 H113       24.0468    3.3731   -8.2538 H         1 UNK         0.0806 
    114 H114       24.2170    1.9354   -9.2595 H         1 UNK         0.0806 
    115 H115       27.2960    0.8976   -9.6489 H         1 UNK         0.3000 
    116 H116       27.8087    1.6195  -12.5192 H         1 UNK         0.0850 
    117 H117       27.2905   -0.7605  -13.0582 H         1 UNK         0.0810 
    118 H118       25.8940    0.0541  -12.3714 H         1 UNK         0.0810 
    119 H119       26.8402   -1.0564  -11.3825 H         1 UNK         0.0810 
    120 H120       28.9018   -0.2383   -9.6564 H         1 UNK         0.3040 
    121 H121       31.2841   -1.2749  -10.9129 H         1 UNK         0.0766 
    122 H122       31.7608   -2.0719   -8.5965 H         1 UNK         0.0812 
    123 H123       30.0839   -2.3951   -9.0015 H         1 UNK         0.0812 
    124 H124       30.4913   -1.0407   -7.9510 H         1 UNK         0.0812 
    125 H125       33.4637   -0.8518  -10.1214 H         1 UNK         0.3205 
    126 H126       34.2861    1.8293  -10.2888 H         1 UNK         0.0754 
    127 H127       36.5384    0.8980   -9.7119 H         1 UNK         0.0769 
    128 H128       35.7258   -0.0945  -10.9089 H         1 UNK         0.0769 
    129 H129       35.7984   -0.6208   -9.2259 H         1 UNK         0.0769 
    130 H130       33.3141    0.0251   -7.4486 H         1 UNK         0.2981 
    131 H131       34.4006    1.9394   -5.5446 H         1 UNK         0.0541 
    132 H132       31.7343    2.2607   -7.6850 H         1 UNK         0.3459 
    133 H133       30.8487    3.3880   -6.6977 H         1 UNK         0.3459 
    134 H134       33.2768    0.6081   -3.8212 H         1 UNK         0.0612 
    135 H135       34.2853   -0.3651   -4.8433 H         1 UNK         0.0612 
    136 H136       33.0903   -2.6810   -6.2720 H         1 UNK         0.0624 
    137 H137       33.6004   -2.5560   -4.6023 H         1 UNK         0.0624 
@<TRIPOS>BOND
     1    1    2 1    
     2    1   72 1    
     3    1   73 1    
     4    1   74 1    
     5    2    3 2    
     6    2    4 am   BACKBONE|DICT|INTERRES
     7    4    5 1    
     8    4   75 1    
     9    5    6 1    
    10    5   35 1    
    11    5   76 1    
    12    6    7 1    
    13    6   77 1    
    14    6   78 1    
    15    7    8 1    
    16    8    9 1    
    17    8   79 1    
    18    8   80 1    
    19    9   10 ar   
    20    9   14 ar   
    21   10   11 ar   
    22   10   81 1    
    23   11   12 ar   
    24   11   71 1    
    25   12   13 ar   
    26   12   82 1    
    27   13   14 ar   
    28   13   15 1    
    29   14   83 1    
    30   15   16 1    
    31   15   84 1    
    32   15   85 1    
    33   16   17 1    
    34   17   18 1    
    35   17   86 1    
    36   17   87 1    
    37   18   19 1    
    38   18   37 1    
    39   18   88 1    
    40   19   20 am   BACKBONE|DICT|INTERRES
    41   19   89 1    
    42   20   21 2    
    43   20   22 1    
    44   22   23 1    
    45   22   24 1    
    46   22   90 1    
    47   23   91 1    
    48   23   92 1    
    49   23   93 1    
    50   24   25 am   BACKBONE|DICT|INTERRES
    51   24   94 1    
    52   25   26 2    
    53   25   27 1    
    54   27   28 1    
    55   27   29 1    
    56   27   95 1    
    57   28   96 1    
    58   28   97 1    
    59   28   98 1    
    60   29   30 am   BACKBONE|DICT|INTERRES
    61   29   99 1    
    62   30   31 2    
    63   30   32 1    
    64   32   33 1    
    65   32   34 1    
    66   32  100 1    
    67   33  101 1    
    68   33  102 1    
    69   33  103 1    
    70   34   35 am   BACKBONE|DICT|INTERRES
    71   34  104 1    
    72   35   36 2    
    73   37   38 2    
    74   37   39 am   BACKBONE|DICT|INTERRES
    75   39   40 1    
    76   39  105 1    
    77   40   41 1    
    78   40   42 1    
    79   40  106 1    
    80   41  107 1    
    81   41  108 1    
    82   41  109 1    
    83   42   43 2    
    84   42   44 am   BACKBONE|DICT|INTERRES
    85   44   45 1    
    86   44  110 1    
    87   45   46 1    
    88   45   47 1    
    89   45  111 1    
    90   46  112 1    
    91   46  113 1    
    92   46  114 1    
    93   47   48 2    
    94   47   49 am   BACKBONE|DICT|INTERRES
    95   49   50 1    
    96   49  115 1    
    97   50   51 1    
    98   50   52 1    
    99   50  116 1    
   100   51  117 1    
   101   51  118 1    
   102   51  119 1    
   103   52   53 2    
   104   52   54 am   BACKBONE|DICT|INTERRES
   105   54   55 1    
   106   54  120 1    
   107   55   56 1    
   108   55   57 1    
   109   55  121 1    
   110   56  122 1    
   111   56  123 1    
   112   56  124 1    
   113   57   58 2    
   114   57   59 am   BACKBONE|DICT|INTERRES
   115   59   60 1    
   116   59  125 1    
   117   60   61 1    
   118   60   62 1    
   119   60  126 1    
   120   61  127 1    
   121   61  128 1    
   122   61  129 1    
   123   62   63 2    
   124   62   64 am   BACKBONE|DICT|INTERRES
   125   64   65 1    
   126   64  130 1    
   127   65   66 1    
   128   65   69 1    
   129   65  131 1    
   130   66   67 am   BACKBONE|DICT|INTERRES
   131   66   68 2    
   132   67  132 1    
   133   67  133 1    
   134   69   70 1    
   135   69  134 1    
   136   69  135 1    
   137   70   71 1    
   138   71  136 1    
   139   71  137 1    
@<TRIPOS>SUBSTRUCTURE
     1 UNK         1 GROUP             0       ****    0 ROOT    
