@<TRIPOS>MOLECULE
3R137
137   139    1
SMALL
USER_CHARGES


@<TRIPOS>ATOM
      1 CA         28.7069   -8.2245   -5.2423 C.3       0 UNK        -0.2020 
      2 C          27.7309   -7.8353   -4.1418 C.2       0 UNK         0.4855 
      3 O          26.7544   -8.5488   -3.9078 O.2       0 UNK        -0.5197 
      4 N          27.9920   -6.7148   -3.4588 N.am      1 UNK        -0.4892 
      5 CA         27.1212   -6.1373   -2.4310 C.3       1 UNK         0.0835 
      6 C6         27.9209   -5.2029   -1.4822 C.3       12 UNK        -0.0855 
      7 S7         28.6348   -3.7451   -2.3179 S.3       12 UNK        -0.2931 
      8 C8         29.4758   -2.9128   -0.9439 C.3       12 UNK         0.0378 
      9 C9         30.0801   -1.5956   -1.4057 C.ar      12 UNK        -0.0802 
     10 C10        31.2464   -1.5941   -2.1771 C.ar      12 UNK        -0.0944 
     11 C11        31.8332   -0.3929   -2.5865 C.ar      12 UNK        -0.0787 
     12 C12        31.2487    0.8159   -2.1919 C.ar      12 UNK        -0.0862 
     13 C13        30.0696    0.8304   -1.4397 C.ar      12 UNK        -0.0733 
     14 C14        29.4887   -0.3797   -1.0501 C.ar      12 UNK        -0.0832 
     15 C15        29.4446    2.1513   -1.0108 C.3       12 UNK         0.0240 
     16 S16        28.1453    2.7087   -2.1601 S.3       12 UNK        -0.2522 
     17 C17        29.1296    3.2469   -3.6071 C.3       12 UNK        -0.0967 
     18 CA         28.7263    2.5609   -4.9378 C.3       5 UNK         0.0660 
     19 N          28.5470    1.1146   -4.7880 N.am      5 UNK        -0.4015 
     20 C          28.3643    0.2391   -5.7840 C.2       4 UNK         0.4946 
     21 O          28.4569    0.5381   -6.9745 O.2       4 UNK        -0.5353 
     22 CA         27.9600   -1.1973   -5.3989 C.3       4 UNK         0.0277 
     23 CB         29.1859   -2.1218   -5.4199 C.3       4 UNK        -0.1981 
     24 N          27.2817   -1.3307   -4.1014 N.am      4 UNK        -0.4209 
     25 C          26.1803   -0.6692   -3.7180 C.2       3 UNK         0.4942 
     26 O          25.6114    0.1663   -4.4211 O.2       3 UNK        -0.5208 
     27 CA         25.6582   -0.9762   -2.3035 C.3       3 UNK         0.0250 
     28 CB         24.6564    0.0838   -1.7978 C.3       3 UNK        -0.1990 
     29 N          25.0953   -2.3269   -2.1927 N.am      3 UNK        -0.4232 
     30 C          24.0619   -2.8537   -2.8716 C.2       2 UNK         0.4993 
     31 O          23.3949   -2.2423   -3.7077 O.2       2 UNK        -0.5286 
     32 CA         23.7082   -4.3195   -2.5329 C.3       2 UNK         0.0209 
     33 CB         22.8199   -4.9925   -3.6030 C.3       2 UNK        -0.1931 
     34 N          24.8914   -5.1413   -2.2312 N.am      2 UNK        -0.4546 
     35 C          25.9100   -5.4129   -3.0625 C.2       1 UNK         0.5154 
     36 O          25.9429   -5.0660   -4.2469 O.2       1 UNK        -0.5181 
     37 C          27.5233    3.2803   -5.5902 C.2       5 UNK         0.5014 
     38 O          27.7329    4.3342   -6.1921 O.2       5 UNK        -0.5248 
     39 N          26.3048    2.7221   -5.4932 N.am      6 UNK        -0.4434 
     40 CA         25.1125    3.2539   -6.1627 C.3       6 UNK         0.0363 
     41 CB         23.8441    2.6518   -5.5378 C.3       6 UNK        -0.1936 
     42 C          25.1423    3.0052   -7.6804 C.2       6 UNK         0.5081 
     43 O          24.6817    3.8563   -8.4415 O.2       6 UNK        -0.5248 
     44 N          25.7061    1.8610   -8.0944 N.am      7 UNK        -0.4718 
     45 CA         26.0027    1.5483   -9.4956 C.3       7 UNK         0.0273 
     46 CB         26.1192    0.0250   -9.6634 C.3       7 UNK        -0.1935 
     47 C          27.2869    2.2452   -9.9783 C.2       7 UNK         0.5018 
     48 O          27.4174    2.5160  -11.1726 O.2       7 UNK        -0.5186 
     49 N          28.2129    2.5023   -9.0429 N.am      8 UNK        -0.4240 
     50 CA         29.5165    3.1633   -9.1645 C.3       8 UNK         0.0235 
     51 CB         29.3981    4.5840   -9.7486 C.3       8 UNK        -0.2000 
     52 C          30.5511    2.3179   -9.9165 C.2       8 UNK         0.4941 
     53 O          31.6245    2.0597   -9.3731 O.2       8 UNK        -0.5273 
     54 N          30.1991    1.8583  -11.1236 N.am      9 UNK        -0.4262 
     55 CA         31.0217    0.9962  -11.9776 C.3       9 UNK         0.0264 
     56 CB         30.3477    0.8590  -13.3522 C.3       9 UNK        -0.1955 
     57 C          31.3005   -0.3921  -11.3728 C.2       9 UNK         0.5031 
     58 O          32.3204   -0.9976  -11.7045 O.2       9 UNK        -0.5390 
     59 N          30.4011   -0.8669  -10.4990 N.am      10 UNK        -0.4204 
     60 CA         30.5521   -2.1133   -9.7479 C.3       10 UNK         0.0237 
     61 CB         29.1897   -2.5311   -9.1715 C.3       10 UNK        -0.1985 
     62 C          31.6140   -2.0102   -8.6384 C.2       10 UNK         0.4970 
     63 O          32.3454   -2.9765   -8.4206 O.2       10 UNK        -0.4914 
     64 N          31.6795   -0.8545   -7.9624 N.am      11 UNK        -0.4285 
     65 CA         32.7045   -0.5424   -6.9571 C.3       11 UNK         0.1007 
     66 C          34.0429   -0.1104   -7.6204 C.2       11 UNK         0.5703 
     67 N          34.0183    0.7579   -8.6239 N.am      11 UNK        -0.7361 
     68 O          35.1094   -0.5865   -7.2382 O.2       11 UNK        -0.4986 
     69 C69        32.1633    0.4769   -5.9169 C.3       12 UNK        -0.0947 
     70 S70        33.3376    0.9300   -4.5944 S.3       12 UNK        -0.2240 
     71 C71        33.1285   -0.4339   -3.3969 C.3       12 UNK         0.0194 
     72 H72        28.1932   -8.2616   -6.2025 H         1 UNK         0.0906 
     73 H73        29.5310   -7.5161   -5.3260 H         1 UNK         0.0906 
     74 H74        29.1263   -9.2100   -5.0414 H         1 UNK         0.0906 
     75 H75        28.7816   -6.1399   -3.7177 H         1 UNK         0.3140 
     76 H76        26.7256   -6.9601   -1.8306 H         1 UNK         0.1085 
     77 H77        28.7330   -5.7644   -1.0169 H         1 UNK         0.0836 
     78 H78        27.2916   -4.8627   -0.6579 H         1 UNK         0.0836 
     79 H79        30.2606   -3.5609   -0.5506 H         1 UNK         0.0731 
     80 H80        28.7688   -2.7488   -0.1291 H         1 UNK         0.0731 
     81 H81        31.7001   -2.5364   -2.4532 H         1 UNK         0.1312 
     82 H82        31.7207    1.7492   -2.4621 H         1 UNK         0.1406 
     83 H83        28.5894   -0.3712   -0.4495 H         1 UNK         0.1631 
     84 H84        30.2077    2.9258   -0.9182 H         1 UNK         0.0717 
     85 H85        29.0067    2.0428   -0.0174 H         1 UNK         0.0717 
     86 H86        29.0613    4.3342   -3.6854 H         1 UNK         0.0934 
     87 H87        30.1850    3.0580   -3.4222 H         1 UNK         0.0934 
     88 H88        29.5587    2.6933   -5.6323 H         1 UNK         0.0739 
     89 H89        28.4591    0.7867   -3.8368 H         1 UNK         0.3093 
     90 H90        27.2601   -1.5412   -6.1628 H         1 UNK         0.0818 
     91 H91        28.8946   -3.1678   -5.3226 H         1 UNK         0.0819 
     92 H92        29.8801   -1.8884   -4.6134 H         1 UNK         0.0819 
     93 H93        29.7374   -2.0302   -6.3526 H         1 UNK         0.0819 
     94 H94        27.6753   -2.0179   -3.4692 H         1 UNK         0.3041 
     95 H95        26.5218   -0.9460   -1.6383 H         1 UNK         0.0784 
     96 H96        25.1040    1.0786   -1.8140 H         1 UNK         0.0793 
     97 H97        23.7582    0.1242   -2.4151 H         1 UNK         0.0793 
     98 H98        24.3494   -0.1175   -0.7717 H         1 UNK         0.0793 
     99 H99        25.5732   -2.9387   -1.5471 H         1 UNK         0.3024 
    100 H100       23.1237   -4.2735   -1.6121 H         1 UNK         0.1171 
    101 H101       23.3003   -5.0050   -4.5818 H         1 UNK         0.0786 
    102 H102       22.5821   -6.0211   -3.3323 H         1 UNK         0.0786 
    103 H103       21.8737   -4.4617   -3.7149 H         1 UNK         0.0786 
    104 H104       24.9516   -5.4755   -1.2785 H         1 UNK         0.2977 
    105 H105       26.1863    1.8417   -4.9941 H         1 UNK         0.3127 
    106 H106       25.0849    4.3340   -6.0021 H         1 UNK         0.0770 
    107 H107       23.7746    1.5779   -5.7149 H         1 UNK         0.0814 
    108 H108       22.9489    3.1083   -5.9619 H         1 UNK         0.0814 
    109 H109       23.8143    2.8157   -4.4605 H         1 UNK         0.0814 
    110 H110       26.0604    1.2201   -7.3978 H         1 UNK         0.2983 
    111 H111       25.1804    1.9006  -10.1225 H         1 UNK         0.0947 
    112 H112       26.3492   -0.2392  -10.6966 H         1 UNK         0.0806 
    113 H113       25.1854   -0.4734   -9.4029 H         1 UNK         0.0806 
    114 H114       26.9059   -0.3919   -9.0355 H         1 UNK         0.0806 
    115 H115       28.0428    2.0922   -8.1302 H         1 UNK         0.3000 
    116 H116       29.8838    3.2658   -8.1421 H         1 UNK         0.0850 
    117 H117       30.3649    5.0889   -9.7368 H         1 UNK         0.0810 
    118 H118       28.7078    5.1917   -9.1631 H         1 UNK         0.0810 
    119 H119       29.0484    4.5802  -10.7811 H         1 UNK         0.0810 
    120 H120       29.2722    2.1072  -11.4611 H         1 UNK         0.3040 
    121 H121       31.9861    1.4900  -12.1144 H         1 UNK         0.0766 
    122 H122       30.9467    0.2396  -14.0214 H         1 UNK         0.0812 
    123 H123       30.2270    1.8297  -13.8335 H         1 UNK         0.0812 
    124 H124       29.3622    0.3980  -13.2746 H         1 UNK         0.0812 
    125 H125       29.5874   -0.3042  -10.3017 H         1 UNK         0.3205 
    126 H126       30.8768   -2.8918  -10.4418 H         1 UNK         0.0754 
    127 H127       28.7808   -1.7701   -8.5076 H         1 UNK         0.0769 
    128 H128       29.2739   -3.4553   -8.5978 H         1 UNK         0.0769 
    129 H129       28.4621   -2.7085   -9.9639 H         1 UNK         0.0769 
    130 H130       31.0727   -0.0934   -8.2293 H         1 UNK         0.2981 
    131 H131       32.9143   -1.4607   -6.4053 H         1 UNK         0.0541 
    132 H132       33.1434    1.1860   -8.9209 H         1 UNK         0.3459 
    133 H133       34.8829    1.0298   -9.0622 H         1 UNK         0.3459 
    134 H134       31.2642    0.0817   -5.4457 H         1 UNK         0.0612 
    135 H135       31.8589    1.3968   -6.4192 H         1 UNK         0.0612 
    136 H136       33.9646   -0.4025   -2.6976 H         1 UNK         0.0624 
    137 H137       33.2120   -1.3805   -3.9328 H         1 UNK         0.0624 
@<TRIPOS>BOND
     1    1    2 1    
     2    1   72 1    
     3    1   73 1    
     4    1   74 1    
     5    2    3 2    
     6    2    4 am   BACKBONE|DICT|INTERRES
     7    4    5 1    
     8    4   75 1    
     9    5    6 1    
    10    5   35 1    
    11    5   76 1    
    12    6    7 1    
    13    6   77 1    
    14    6   78 1    
    15    7    8 1    
    16    8    9 1    
    17    8   79 1    
    18    8   80 1    
    19    9   10 ar   
    20    9   14 ar   
    21   10   11 ar   
    22   10   81 1    
    23   11   12 ar   
    24   11   71 1    
    25   12   13 ar   
    26   12   82 1    
    27   13   14 ar   
    28   13   15 1    
    29   14   83 1    
    30   15   16 1    
    31   15   84 1    
    32   15   85 1    
    33   16   17 1    
    34   17   18 1    
    35   17   86 1    
    36   17   87 1    
    37   18   19 1    
    38   18   37 1    
    39   18   88 1    
    40   19   20 am   BACKBONE|DICT|INTERRES
    41   19   89 1    
    42   20   21 2    
    43   20   22 1    
    44   22   23 1    
    45   22   24 1    
    46   22   90 1    
    47   23   91 1    
    48   23   92 1    
    49   23   93 1    
    50   24   25 am   BACKBONE|DICT|INTERRES
    51   24   94 1    
    52   25   26 2    
    53   25   27 1    
    54   27   28 1    
    55   27   29 1    
    56   27   95 1    
    57   28   96 1    
    58   28   97 1    
    59   28   98 1    
    60   29   30 am   BACKBONE|DICT|INTERRES
    61   29   99 1    
    62   30   31 2    
    63   30   32 1    
    64   32   33 1    
    65   32   34 1    
    66   32  100 1    
    67   33  101 1    
    68   33  102 1    
    69   33  103 1    
    70   34   35 am   BACKBONE|DICT|INTERRES
    71   34  104 1    
    72   35   36 2    
    73   37   38 2    
    74   37   39 am   BACKBONE|DICT|INTERRES
    75   39   40 1    
    76   39  105 1    
    77   40   41 1    
    78   40   42 1    
    79   40  106 1    
    80   41  107 1    
    81   41  108 1    
    82   41  109 1    
    83   42   43 2    
    84   42   44 am   BACKBONE|DICT|INTERRES
    85   44   45 1    
    86   44  110 1    
    87   45   46 1    
    88   45   47 1    
    89   45  111 1    
    90   46  112 1    
    91   46  113 1    
    92   46  114 1    
    93   47   48 2    
    94   47   49 am   BACKBONE|DICT|INTERRES
    95   49   50 1    
    96   49  115 1    
    97   50   51 1    
    98   50   52 1    
    99   50  116 1    
   100   51  117 1    
   101   51  118 1    
   102   51  119 1    
   103   52   53 2    
   104   52   54 am   BACKBONE|DICT|INTERRES
   105   54   55 1    
   106   54  120 1    
   107   55   56 1    
   108   55   57 1    
   109   55  121 1    
   110   56  122 1    
   111   56  123 1    
   112   56  124 1    
   113   57   58 2    
   114   57   59 am   BACKBONE|DICT|INTERRES
   115   59   60 1    
   116   59  125 1    
   117   60   61 1    
   118   60   62 1    
   119   60  126 1    
   120   61  127 1    
   121   61  128 1    
   122   61  129 1    
   123   62   63 2    
   124   62   64 am   BACKBONE|DICT|INTERRES
   125   64   65 1    
   126   64  130 1    
   127   65   66 1    
   128   65   69 1    
   129   65  131 1    
   130   66   67 am   BACKBONE|DICT|INTERRES
   131   66   68 2    
   132   67  132 1    
   133   67  133 1    
   134   69   70 1    
   135   69  134 1    
   136   69  135 1    
   137   70   71 1    
   138   71  136 1    
   139   71  137 1    
@<TRIPOS>SUBSTRUCTURE
     1 UNK         1 GROUP             0       ****    0 ROOT    
