@<TRIPOS>MOLECULE
3R137
137   139    1
SMALL
USER_CHARGES


@<TRIPOS>ATOM
      1 CA         32.3971   -4.5271   -5.4502 C.3       0 UNK        -0.2020 
      2 C          31.2425   -5.1555   -4.6844 C.2       0 UNK         0.4855 
      3 O          31.3506   -6.2977   -4.2379 O.2       0 UNK        -0.5197 
      4 N          30.1439   -4.4098   -4.5296 N.am      1 UNK        -0.4892 
      5 CA         28.9083   -4.8538   -3.8724 C.3       1 UNK         0.0835 
      6 C6         28.3098   -3.7454   -2.9672 C.3       12 UNK        -0.0855 
      7 S7         29.0602   -3.7201   -1.3065 S.3       12 UNK        -0.2931 
      8 C8         30.5639   -2.7245   -1.5541 C.3       12 UNK         0.0378 
      9 C9         30.2736   -1.2718   -1.9048 C.ar      12 UNK        -0.0802 
     10 C10        30.6097   -0.7711   -3.1653 C.ar      12 UNK        -0.0944 
     11 C11        30.4555    0.5884   -3.4553 C.ar      12 UNK        -0.0787 
     12 C12        29.9091    1.4394   -2.4896 C.ar      12 UNK        -0.0862 
     13 C13        29.5169    0.9386   -1.2443 C.ar      12 UNK        -0.0733 
     14 C14        29.7168   -0.4142   -0.9522 C.ar      12 UNK        -0.0832 
     15 C15        28.8865    1.8524   -0.2049 C.3       12 UNK         0.0240 
     16 S16        27.0683    1.8414   -0.3256 S.3       12 UNK        -0.2522 
     17 C17        26.7603    3.0684   -1.6425 C.3       12 UNK        -0.0967 
     18 CA         26.4178    2.4341   -3.0153 C.3       5 UNK         0.0660 
     19 N          25.2644    1.5249   -2.9312 N.am      5 UNK        -0.4015 
     20 C          24.6075    0.9346   -3.9413 C.2       4 UNK         0.4946 
     21 O          24.7664    1.1970   -5.1355 O.2       4 UNK        -0.5353 
     22 CA         23.5881   -0.1525   -3.5510 C.3       4 UNK         0.0277 
     23 CB         22.2000    0.4658   -3.3171 C.3       4 UNK        -0.1981 
     24 N          23.4924   -1.1701   -4.6037 N.am      4 UNK        -0.4209 
     25 C          24.4687   -2.0404   -4.8953 C.2       3 UNK         0.4942 
     26 O          25.4586   -2.2238   -4.1802 O.2       3 UNK        -0.5208 
     27 CA         24.3389   -2.8043   -6.2229 C.3       3 UNK         0.0250 
     28 CB         24.1692   -1.8387   -7.4176 C.3       3 UNK        -0.1990 
     29 N          25.5460   -3.6070   -6.3972 N.am      3 UNK        -0.4232 
     30 C          25.7303   -4.6186   -7.2524 C.2       2 UNK         0.4993 
     31 O          24.8543   -5.0361   -8.0111 O.2       2 UNK        -0.5286 
     32 CA         27.1239   -5.2806   -7.2825 C.3       2 UNK         0.0209 
     33 CB         27.8407   -4.9928   -8.6132 C.3       2 UNK        -0.1931 
     34 N          28.0036   -4.8864   -6.1748 N.am      2 UNK        -0.4546 
     35 C          27.8785   -5.3329   -4.9152 C.2       1 UNK         0.5154 
     36 O          26.9899   -6.1100   -4.5635 O.2       1 UNK        -0.5181 
     37 C          26.2797    3.5332   -4.0929 C.2       5 UNK         0.5014 
     38 O          25.5451    4.5033   -3.8930 O.2       5 UNK        -0.5248 
     39 N          27.0034    3.3486   -5.2007 N.am      6 UNK        -0.4434 
     40 CA         27.0586    4.1642   -6.4101 C.3       6 UNK         0.0363 
     41 CB         25.6844    4.1962   -7.1121 C.3       6 UNK        -0.1936 
     42 C          28.1068    3.5084   -7.3200 C.2       6 UNK         0.5081 
     43 O          28.5558    2.3986   -7.0217 O.2       6 UNK        -0.5248 
     44 N          28.4511    4.1535   -8.4429 N.am      7 UNK        -0.4718 
     45 CA         29.3867    3.6180   -9.4473 C.3       7 UNK         0.0273 
     46 CB         29.5683    4.6420  -10.5786 C.3       7 UNK        -0.1935 
     47 C          28.9693    2.2474  -10.0193 C.2       7 UNK         0.5018 
     48 O          29.8307    1.4130  -10.3015 O.2       7 UNK        -0.5186 
     49 N          27.6506    2.0194  -10.1052 N.am      8 UNK        -0.4240 
     50 CA         27.0200    0.7519  -10.4811 C.3       8 UNK         0.0235 
     51 CB         25.5021    0.9673  -10.5996 C.3       8 UNK        -0.2000 
     52 C          27.3142   -0.4179   -9.5215 C.2       8 UNK         0.4941 
     53 O          27.1749   -1.5677   -9.9373 O.2       8 UNK        -0.5273 
     54 N          27.7210   -0.1268   -8.2751 N.am      9 UNK        -0.4262 
     55 CA         28.0845   -1.1295   -7.2715 C.3       9 UNK         0.0264 
     56 CB         27.8169   -0.5813   -5.8643 C.3       9 UNK        -0.1955 
     57 C          29.5165   -1.6740   -7.4190 C.2       9 UNK         0.5031 
     58 O          29.8802   -2.5692   -6.6543 O.2       9 UNK        -0.5390 
     59 N          30.2738   -1.1733   -8.4079 N.am      10 UNK        -0.4204 
     60 CA         31.5266   -1.7291   -8.9350 C.3       10 UNK         0.0237 
     61 CB         31.2965   -3.1547   -9.4861 C.3       10 UNK        -0.1985 
     62 C          32.7438   -1.6496   -7.9921 C.2       10 UNK         0.4970 
     63 O          33.6576   -2.4658   -8.1235 O.2       10 UNK        -0.4914 
     64 N          32.7708   -0.6585   -7.0914 N.am      11 UNK        -0.4285 
     65 CA         33.9417   -0.3438   -6.2500 C.3       11 UNK         0.1007 
     66 C          35.0253    0.5303   -6.9491 C.2       11 UNK         0.5703 
     67 N          34.7957    1.0444   -8.1523 N.am      11 UNK        -0.7361 
     68 O          36.1053    0.7286   -6.3974 O.2       11 UNK        -0.4986 
     69 C69        33.5421    0.2034   -4.8538 C.3       12 UNK        -0.0947 
     70 S70        32.5644    1.7466   -4.8792 S.3       12 UNK        -0.2240 
     71 C71        30.8523    1.1350   -4.8193 C.3       12 UNK         0.0194 
     72 H72        32.2844   -3.4462   -5.5332 H         1 UNK         0.0906 
     73 H73        33.3416   -4.7269   -4.9451 H         1 UNK         0.0906 
     74 H74        32.4521   -4.9408   -6.4568 H         1 UNK         0.0906 
     75 H75        30.0937   -3.5227   -5.0256 H         1 UNK         0.3140 
     76 H76        29.1168   -5.7258   -3.2480 H         1 UNK         0.1085 
     77 H77        28.3911   -2.7617   -3.4271 H         1 UNK         0.0836 
     78 H78        27.2410   -3.9037   -2.8061 H         1 UNK         0.0836 
     79 H79        31.1909   -3.1923   -2.3130 H         1 UNK         0.0731 
     80 H80        31.1478   -2.7501   -0.6330 H         1 UNK         0.0731 
     81 H81        31.0137   -1.4379   -3.9138 H         1 UNK         0.1312 
     82 H82        29.7780    2.4893   -2.7127 H         1 UNK         0.1406 
     83 H83        29.4384   -0.8032    0.0181 H         1 UNK         0.1631 
     84 H84        29.2698    2.8695   -0.2977 H         1 UNK         0.0717 
     85 H85        29.1690    1.5179    0.7945 H         1 UNK         0.0717 
     86 H86        25.9401    3.7075   -1.3089 H         1 UNK         0.0934 
     87 H87        27.6273    3.7260   -1.7294 H         1 UNK         0.0934 
     88 H88        27.2592    1.8002   -3.2998 H         1 UNK         0.0739 
     89 H89        25.0286    1.2458   -1.9901 H         1 UNK         0.3093 
     90 H90        23.9204   -0.6381   -2.6307 H         1 UNK         0.0818 
     91 H91        22.2309    1.2055   -2.5160 H         1 UNK         0.0819 
     92 H92        21.8270    0.9694   -4.2101 H         1 UNK         0.0819 
     93 H93        21.4710   -0.2917   -3.0286 H         1 UNK         0.0819 
     94 H94        22.7350   -1.0593   -5.2614 H         1 UNK         0.3041 
     95 H95        23.4770   -3.4708   -6.1551 H         1 UNK         0.0784 
     96 H96        23.2225   -1.3008   -7.3650 H         1 UNK         0.0793 
     97 H97        24.9646   -1.0930   -7.4461 H         1 UNK         0.0793 
     98 H98        24.1783   -2.3672   -8.3708 H         1 UNK         0.0793 
     99 H99        26.2797   -3.3733   -5.7396 H         1 UNK         0.3024 
    100 H100       26.9583   -6.3586   -7.2177 H         1 UNK         0.1171 
    101 H101       27.2425   -5.3311   -9.4603 H         1 UNK         0.0786 
    102 H102       28.0253   -3.9286   -8.7552 H         1 UNK         0.0786 
    103 H103       28.7992   -5.5091   -8.6689 H         1 UNK         0.0786 
    104 H104       28.7585   -4.2435   -6.3913 H         1 UNK         0.2977 
    105 H105       27.5749    2.5160   -5.2929 H         1 UNK         0.3127 
    106 H106       27.3844    5.1735   -6.1527 H         1 UNK         0.0770 
    107 H107       25.7239    4.7611   -8.0439 H         1 UNK         0.0814 
    108 H108       24.9257    4.6700   -6.4898 H         1 UNK         0.0814 
    109 H109       25.3343    3.1905   -7.3505 H         1 UNK         0.0814 
    110 H110       28.0484    5.0610   -8.6313 H         1 UNK         0.2983 
    111 H111       30.3510    3.4776   -8.9536 H         1 UNK         0.0947 
    112 H112       30.2732    4.2757  -11.3266 H         1 UNK         0.0806 
    113 H113       29.9626    5.5856  -10.2010 H         1 UNK         0.0806 
    114 H114       28.6284    4.8505  -11.0912 H         1 UNK         0.0806 
    115 H115       27.0303    2.7702   -9.8400 H         1 UNK         0.3000 
    116 H116       27.4074    0.4690  -11.4621 H         1 UNK         0.0850 
    117 H117       25.0623    1.2716   -9.6487 H         1 UNK         0.0810 
    118 H118       25.0004    0.0494  -10.9101 H         1 UNK         0.0810 
    119 H119       25.2642    1.7300  -11.3415 H         1 UNK         0.0810 
    120 H120       27.8503    0.8435   -8.0020 H         1 UNK         0.3040 
    121 H121       27.4281   -1.9879   -7.4069 H         1 UNK         0.0766 
    122 H122       26.7693   -0.3145   -5.7479 H         1 UNK         0.0812 
    123 H123       28.4035    0.3038   -5.6437 H         1 UNK         0.0812 
    124 H124       28.0459   -1.3208   -5.0999 H         1 UNK         0.0812 
    125 H125       29.8877   -0.4071   -8.9483 H         1 UNK         0.3205 
    126 H126       31.7831   -1.0970   -9.7864 H         1 UNK         0.0754 
    127 H127       32.1651   -3.5074  -10.0435 H         1 UNK         0.0769 
    128 H128       30.4451   -3.1850  -10.1663 H         1 UNK         0.0769 
    129 H129       31.1116   -3.8726   -8.6862 H         1 UNK         0.0769 
    130 H130       32.0022   -0.0073   -7.0522 H         1 UNK         0.2981 
    131 H131       34.4540   -1.2862   -6.0469 H         1 UNK         0.0541 
    132 H132       33.9176    0.8912   -8.6192 H         1 UNK         0.3459 
    133 H133       35.5112    1.6007   -8.5930 H         1 UNK         0.3459 
    134 H134       33.0072   -0.5675   -4.3062 H         1 UNK         0.0612 
    135 H135       34.4352    0.3921   -4.2554 H         1 UNK         0.0612 
    136 H136       30.7112    0.3765   -5.5873 H         1 UNK         0.0624 
    137 H137       30.1938    1.9630   -5.0801 H         1 UNK         0.0624 
@<TRIPOS>BOND
     1    1    2 1    
     2    1   72 1    
     3    1   73 1    
     4    1   74 1    
     5    2    3 2    
     6    2    4 am   BACKBONE|DICT|INTERRES
     7    4    5 1    
     8    4   75 1    
     9    5    6 1    
    10    5   35 1    
    11    5   76 1    
    12    6    7 1    
    13    6   77 1    
    14    6   78 1    
    15    7    8 1    
    16    8    9 1    
    17    8   79 1    
    18    8   80 1    
    19    9   10 ar   
    20    9   14 ar   
    21   10   11 ar   
    22   10   81 1    
    23   11   12 ar   
    24   11   71 1    
    25   12   13 ar   
    26   12   82 1    
    27   13   14 ar   
    28   13   15 1    
    29   14   83 1    
    30   15   16 1    
    31   15   84 1    
    32   15   85 1    
    33   16   17 1    
    34   17   18 1    
    35   17   86 1    
    36   17   87 1    
    37   18   19 1    
    38   18   37 1    
    39   18   88 1    
    40   19   20 am   BACKBONE|DICT|INTERRES
    41   19   89 1    
    42   20   21 2    
    43   20   22 1    
    44   22   23 1    
    45   22   24 1    
    46   22   90 1    
    47   23   91 1    
    48   23   92 1    
    49   23   93 1    
    50   24   25 am   BACKBONE|DICT|INTERRES
    51   24   94 1    
    52   25   26 2    
    53   25   27 1    
    54   27   28 1    
    55   27   29 1    
    56   27   95 1    
    57   28   96 1    
    58   28   97 1    
    59   28   98 1    
    60   29   30 am   BACKBONE|DICT|INTERRES
    61   29   99 1    
    62   30   31 2    
    63   30   32 1    
    64   32   33 1    
    65   32   34 1    
    66   32  100 1    
    67   33  101 1    
    68   33  102 1    
    69   33  103 1    
    70   34   35 am   BACKBONE|DICT|INTERRES
    71   34  104 1    
    72   35   36 2    
    73   37   38 2    
    74   37   39 am   BACKBONE|DICT|INTERRES
    75   39   40 1    
    76   39  105 1    
    77   40   41 1    
    78   40   42 1    
    79   40  106 1    
    80   41  107 1    
    81   41  108 1    
    82   41  109 1    
    83   42   43 2    
    84   42   44 am   BACKBONE|DICT|INTERRES
    85   44   45 1    
    86   44  110 1    
    87   45   46 1    
    88   45   47 1    
    89   45  111 1    
    90   46  112 1    
    91   46  113 1    
    92   46  114 1    
    93   47   48 2    
    94   47   49 am   BACKBONE|DICT|INTERRES
    95   49   50 1    
    96   49  115 1    
    97   50   51 1    
    98   50   52 1    
    99   50  116 1    
   100   51  117 1    
   101   51  118 1    
   102   51  119 1    
   103   52   53 2    
   104   52   54 am   BACKBONE|DICT|INTERRES
   105   54   55 1    
   106   54  120 1    
   107   55   56 1    
   108   55   57 1    
   109   55  121 1    
   110   56  122 1    
   111   56  123 1    
   112   56  124 1    
   113   57   58 2    
   114   57   59 am   BACKBONE|DICT|INTERRES
   115   59   60 1    
   116   59  125 1    
   117   60   61 1    
   118   60   62 1    
   119   60  126 1    
   120   61  127 1    
   121   61  128 1    
   122   61  129 1    
   123   62   63 2    
   124   62   64 am   BACKBONE|DICT|INTERRES
   125   64   65 1    
   126   64  130 1    
   127   65   66 1    
   128   65   69 1    
   129   65  131 1    
   130   66   67 am   BACKBONE|DICT|INTERRES
   131   66   68 2    
   132   67  132 1    
   133   67  133 1    
   134   69   70 1    
   135   69  134 1    
   136   69  135 1    
   137   70   71 1    
   138   71  136 1    
   139   71  137 1    
@<TRIPOS>SUBSTRUCTURE
     1 UNK         1 GROUP             0       ****    0 ROOT    
