@<TRIPOS>MOLECULE
3R137
137   139    1
SMALL
USER_CHARGES


@<TRIPOS>ATOM
      1 CA         29.3514    2.2817   -2.7160 C.3       0 UNK        -0.2020 
      2 C          28.9394    0.8230   -2.8465 C.2       0 UNK         0.4855 
      3 O          28.8006    0.3267   -3.9617 O.2       0 UNK        -0.5197 
      4 N          28.7690    0.1333   -1.7122 N.am      1 UNK        -0.4892 
      5 CA         28.3766   -1.2759   -1.6398 C.3       1 UNK         0.0835 
      6 C6         29.0079   -1.9472   -0.3905 C.3       12 UNK        -0.0855 
      7 S7         28.9811   -3.7735   -0.4481 S.3       12 UNK        -0.2931 
      8 C8         30.6347   -4.1565   -1.1140 C.3       12 UNK         0.0378 
      9 C9         30.8027   -3.6078   -2.5221 C.ar      12 UNK        -0.0802 
     10 C10        31.6313   -2.5046   -2.7580 C.ar      12 UNK        -0.0944 
     11 C11        31.7318   -1.9621   -4.0419 C.ar      12 UNK        -0.0787 
     12 C12        31.0080   -2.5347   -5.0881 C.ar      12 UNK        -0.0862 
     13 C13        30.1688   -3.6253   -4.8643 C.ar      12 UNK        -0.0733 
     14 C14        30.0849   -4.1734   -3.5817 C.ar      12 UNK        -0.0832 
     15 C15        29.3302   -4.1822   -6.0039 C.3       12 UNK         0.0240 
     16 S16        27.5669   -3.7865   -5.7868 S.3       12 UNK        -0.2522 
     17 C17        27.5221   -1.9621   -5.9471 C.3       12 UNK        -0.0967 
     18 CA         26.5158   -1.4733   -7.0205 C.3       5 UNK         0.0660 
     19 N          25.1991   -2.0983   -6.8608 N.am      5 UNK        -0.4015 
     20 C          24.3130   -2.3192   -7.8395 C.2       4 UNK         0.4946 
     21 O          24.5233   -2.0672   -9.0265 O.2       4 UNK        -0.5353 
     22 CA         22.9621   -2.9385   -7.4306 C.3       4 UNK         0.0277 
     23 CB         23.0057   -4.4666   -7.5931 C.3       4 UNK        -0.1981 
     24 N          22.5704   -2.6125   -6.0557 N.am      4 UNK        -0.4209 
     25 C          22.1201   -1.4134   -5.6588 C.2       3 UNK         0.4942 
     26 O          21.8946   -0.4792   -6.4275 O.2       3 UNK        -0.5208 
     27 CA         21.9136   -1.2056   -4.1449 C.3       3 UNK         0.0250 
     28 CB         20.4576   -1.5076   -3.7570 C.3       3 UNK        -0.1990 
     29 N          22.8181   -1.9847   -3.2860 N.am      3 UNK        -0.4232 
     30 C          24.1564   -1.9195   -3.3208 C.2       2 UNK         0.4993 
     31 O          24.7757   -1.2253   -4.1275 O.2       2 UNK        -0.5286 
     32 CA         24.9191   -2.8330   -2.3469 C.3       2 UNK         0.0209 
     33 CB         24.8060   -4.3024   -2.7896 C.3       2 UNK        -0.1931 
     34 N          26.3409   -2.4911   -2.2533 N.am      2 UNK        -0.4546 
     35 C          26.8398   -1.4063   -1.6464 C.2       1 UNK         0.5154 
     36 O          26.1483   -0.5667   -1.0623 O.2       1 UNK        -0.5181 
     37 C          26.3681    0.0649   -7.0054 C.2       5 UNK         0.5014 
     38 O          27.0618    0.7571   -7.7520 O.2       5 UNK        -0.5248 
     39 N          25.4128    0.5592   -6.2020 N.am      6 UNK        -0.4434 
     40 CA         24.9146    1.9320   -6.1247 C.3       6 UNK         0.0363 
     41 CB         24.1895    2.3240   -7.4326 C.3       6 UNK        -0.1936 
     42 C          26.0112    2.9185   -5.6953 C.2       6 UNK         0.5081 
     43 O          26.3278    2.9791   -4.5079 O.2       6 UNK        -0.5248 
     44 N          26.5467    3.6908   -6.6493 N.am      7 UNK        -0.4718 
     45 CA         27.6045    4.6743   -6.4174 C.3       7 UNK         0.0273 
     46 CB         27.6683    5.6434   -7.6090 C.3       7 UNK        -0.1935 
     47 C          28.9796    4.0329   -6.1704 C.2       7 UNK         0.5018 
     48 O          29.7546    4.5838   -5.3885 O.2       7 UNK        -0.5186 
     49 N          29.2499    2.9017   -6.8374 N.am      8 UNK        -0.4240 
     50 CA         30.4855    2.1182   -6.7690 C.3       8 UNK         0.0235 
     51 CB         31.7530    2.9686   -7.0166 C.3       8 UNK        -0.2000 
     52 C          30.4214    0.9827   -7.7919 C.2       8 UNK         0.4941 
     53 O          30.5589   -0.1784   -7.4128 O.2       8 UNK        -0.5273 
     54 N          30.2316    1.3430   -9.0710 N.am      9 UNK        -0.4262 
     55 CA         30.1666    0.4823  -10.2618 C.3       9 UNK         0.0264 
     56 CB         28.9032   -0.4025  -10.2475 C.3       9 UNK        -0.1955 
     57 C          31.4377   -0.3527  -10.5082 C.2       9 UNK         0.5031 
     58 O          32.1492   -0.1026  -11.4819 O.2       9 UNK        -0.5390 
     59 N          31.6829   -1.3357   -9.6357 N.am      10 UNK        -0.4204 
     60 CA         32.8314   -2.2379   -9.6727 C.3       10 UNK         0.0237 
     61 CB         32.4861   -3.5319   -8.9167 C.3       10 UNK        -0.1985 
     62 C          34.0978   -1.5942   -9.0888 C.2       10 UNK         0.4970 
     63 O          35.1842   -1.8261   -9.6210 O.2       10 UNK        -0.4914 
     64 N          33.9454   -0.8189   -8.0064 N.am      11 UNK        -0.4285 
     65 CA         35.0532   -0.1218   -7.3343 C.3       11 UNK         0.1007 
     66 C          35.5388    1.1181   -8.1327 C.2       11 UNK         0.5703 
     67 N          36.8051    1.4849   -7.9949 N.am      11 UNK        -0.7361 
     68 O          34.7755    1.7698   -8.8429 O.2       11 UNK        -0.4986 
     69 C69        34.7135    0.2549   -5.8679 C.3       12 UNK        -0.0947 
     70 S70        34.2488   -1.1985   -4.8666 S.3       12 UNK        -0.2240 
     71 C71        32.5828   -0.7336   -4.3100 C.3       12 UNK         0.0194 
     72 H72        28.5636    2.9294   -3.0924 H         1 UNK         0.0906 
     73 H73        30.2494    2.4719   -3.3002 H         1 UNK         0.0906 
     74 H74        29.5551    2.5601   -1.6842 H         1 UNK         0.0906 
     75 H75        28.8378    0.6113   -0.8252 H         1 UNK         0.3140 
     76 H76        28.7576   -1.7741   -2.5336 H         1 UNK         0.1085 
     77 H77        28.5061   -1.6192    0.5221 H         1 UNK         0.0836 
     78 H78        30.0462   -1.6293   -0.2811 H         1 UNK         0.0836 
     79 H79        31.3988   -3.7598   -0.4435 H         1 UNK         0.0731 
     80 H80        30.7711   -5.2388   -1.1290 H         1 UNK         0.0731 
     81 H81        32.1786   -2.0534   -1.9419 H         1 UNK         0.1312 
     82 H82        31.0814   -2.1147   -6.0780 H         1 UNK         0.1406 
     83 H83        29.4275   -5.0130   -3.3993 H         1 UNK         0.1631 
     84 H84        29.4489   -5.2658   -6.0430 H         1 UNK         0.0717 
     85 H85        29.6690   -3.7995   -6.9681 H         1 UNK         0.0717 
     86 H86        27.2681   -1.5560   -4.9673 H         1 UNK         0.0934 
     87 H87        28.5191   -1.5814   -6.1752 H         1 UNK         0.0934 
     88 H88        26.9119   -1.7544   -7.9983 H         1 UNK         0.0739 
     89 H89        24.9267   -2.2795   -5.9037 H         1 UNK         0.3093 
     90 H90        22.2011   -2.5446   -8.1079 H         1 UNK         0.0818 
     91 H91        23.2655   -4.7417   -8.6163 H         1 UNK         0.0819 
     92 H92        23.7469   -4.9231   -6.9359 H         1 UNK         0.0819 
     93 H93        22.0374   -4.9175   -7.3747 H         1 UNK         0.0819 
     94 H94        22.6993   -3.3309   -5.3586 H         1 UNK         0.3041 
     95 H95        22.1076   -0.1508   -3.9405 H         1 UNK         0.0784 
     96 H96        19.7629   -0.9239   -4.3630 H         1 UNK         0.0793 
     97 H97        20.2103   -2.5597   -3.9014 H         1 UNK         0.0793 
     98 H98        20.2633   -1.2557   -2.7144 H         1 UNK         0.0793 
     99 H99        22.3789   -2.5916   -2.6081 H         1 UNK         0.3024 
    100 H100       24.4742   -2.7205   -1.3556 H         1 UNK         0.1171 
    101 H101       23.7674   -4.6342   -2.8117 H         1 UNK         0.0786 
    102 H102       25.2194   -4.4571   -3.7873 H         1 UNK         0.0786 
    103 H103       25.3360   -4.9636   -2.1037 H         1 UNK         0.0786 
    104 H104       26.9821   -3.1241   -2.7088 H         1 UNK         0.2977 
    105 H105       25.0085   -0.0837   -5.5226 H         1 UNK         0.3127 
    106 H106       24.1699    1.9379   -5.3273 H         1 UNK         0.0770 
    107 H107       24.8383    2.2631   -8.3066 H         1 UNK         0.0814 
    108 H108       23.8004    3.3416   -7.3767 H         1 UNK         0.0814 
    109 H109       23.3387    1.6671   -7.6136 H         1 UNK         0.0814 
    110 H110       26.2346    3.5612   -7.6010 H         1 UNK         0.2983 
    111 H111       27.3467    5.2496   -5.5251 H         1 UNK         0.0947 
    112 H112       27.9054    5.1271   -8.5400 H         1 UNK         0.0806 
    113 H113       28.4366    6.4021   -7.4527 H         1 UNK         0.0806 
    114 H114       26.7220    6.1671   -7.7458 H         1 UNK         0.0806 
    115 H115       28.5025    2.4752   -7.3759 H         1 UNK         0.3000 
    116 H116       30.5434    1.6690   -5.7760 H         1 UNK         0.0850 
    117 H117       32.6187    2.3401   -7.2237 H         1 UNK         0.0810 
    118 H118       32.0079    3.5724   -6.1463 H         1 UNK         0.0810 
    119 H119       31.6342    3.6410   -7.8667 H         1 UNK         0.0810 
    120 H120       30.1685    2.3331   -9.2623 H         1 UNK         0.3040 
    121 H121       30.0733    1.1590  -11.1128 H         1 UNK         0.0766 
    122 H122       28.8625   -1.0513   -9.3726 H         1 UNK         0.0812 
    123 H123       28.8615   -1.0417  -11.1303 H         1 UNK         0.0812 
    124 H124       27.9992    0.2060  -10.2485 H         1 UNK         0.0812 
    125 H125       31.0920   -1.3568   -8.8087 H         1 UNK         0.3205 
    126 H126       33.0363   -2.4970  -10.7138 H         1 UNK         0.0754 
    127 H127       33.3127   -4.2420   -8.9640 H         1 UNK         0.0769 
    128 H128       31.6137   -4.0226   -9.3485 H         1 UNK         0.0769 
    129 H129       32.2788   -3.3451   -7.8626 H         1 UNK         0.0769 
    130 H130       33.0197   -0.6561   -7.6397 H         1 UNK         0.2981 
    131 H131       35.8914   -0.8208   -7.2957 H         1 UNK         0.0541 
    132 H132       37.1358    2.2955   -8.4944 H         1 UNK         0.3459 
    133 H133       37.4388    0.9658   -7.4072 H         1 UNK         0.3459 
    134 H134       33.9217    1.0031   -5.8337 H         1 UNK         0.0612 
    135 H135       35.5785    0.7146   -5.3866 H         1 UNK         0.0612 
    136 H136       32.0913   -0.1236   -5.0677 H         1 UNK         0.0624 
    137 H137       32.6573   -0.1130   -3.4167 H         1 UNK         0.0624 
@<TRIPOS>BOND
     1    1    2 1    
     2    1   72 1    
     3    1   73 1    
     4    1   74 1    
     5    2    3 2    
     6    2    4 am   BACKBONE|DICT|INTERRES
     7    4    5 1    
     8    4   75 1    
     9    5    6 1    
    10    5   35 1    
    11    5   76 1    
    12    6    7 1    
    13    6   77 1    
    14    6   78 1    
    15    7    8 1    
    16    8    9 1    
    17    8   79 1    
    18    8   80 1    
    19    9   10 ar   
    20    9   14 ar   
    21   10   11 ar   
    22   10   81 1    
    23   11   12 ar   
    24   11   71 1    
    25   12   13 ar   
    26   12   82 1    
    27   13   14 ar   
    28   13   15 1    
    29   14   83 1    
    30   15   16 1    
    31   15   84 1    
    32   15   85 1    
    33   16   17 1    
    34   17   18 1    
    35   17   86 1    
    36   17   87 1    
    37   18   19 1    
    38   18   37 1    
    39   18   88 1    
    40   19   20 am   BACKBONE|DICT|INTERRES
    41   19   89 1    
    42   20   21 2    
    43   20   22 1    
    44   22   23 1    
    45   22   24 1    
    46   22   90 1    
    47   23   91 1    
    48   23   92 1    
    49   23   93 1    
    50   24   25 am   BACKBONE|DICT|INTERRES
    51   24   94 1    
    52   25   26 2    
    53   25   27 1    
    54   27   28 1    
    55   27   29 1    
    56   27   95 1    
    57   28   96 1    
    58   28   97 1    
    59   28   98 1    
    60   29   30 am   BACKBONE|DICT|INTERRES
    61   29   99 1    
    62   30   31 2    
    63   30   32 1    
    64   32   33 1    
    65   32   34 1    
    66   32  100 1    
    67   33  101 1    
    68   33  102 1    
    69   33  103 1    
    70   34   35 am   BACKBONE|DICT|INTERRES
    71   34  104 1    
    72   35   36 2    
    73   37   38 2    
    74   37   39 am   BACKBONE|DICT|INTERRES
    75   39   40 1    
    76   39  105 1    
    77   40   41 1    
    78   40   42 1    
    79   40  106 1    
    80   41  107 1    
    81   41  108 1    
    82   41  109 1    
    83   42   43 2    
    84   42   44 am   BACKBONE|DICT|INTERRES
    85   44   45 1    
    86   44  110 1    
    87   45   46 1    
    88   45   47 1    
    89   45  111 1    
    90   46  112 1    
    91   46  113 1    
    92   46  114 1    
    93   47   48 2    
    94   47   49 am   BACKBONE|DICT|INTERRES
    95   49   50 1    
    96   49  115 1    
    97   50   51 1    
    98   50   52 1    
    99   50  116 1    
   100   51  117 1    
   101   51  118 1    
   102   51  119 1    
   103   52   53 2    
   104   52   54 am   BACKBONE|DICT|INTERRES
   105   54   55 1    
   106   54  120 1    
   107   55   56 1    
   108   55   57 1    
   109   55  121 1    
   110   56  122 1    
   111   56  123 1    
   112   56  124 1    
   113   57   58 2    
   114   57   59 am   BACKBONE|DICT|INTERRES
   115   59   60 1    
   116   59  125 1    
   117   60   61 1    
   118   60   62 1    
   119   60  126 1    
   120   61  127 1    
   121   61  128 1    
   122   61  129 1    
   123   62   63 2    
   124   62   64 am   BACKBONE|DICT|INTERRES
   125   64   65 1    
   126   64  130 1    
   127   65   66 1    
   128   65   69 1    
   129   65  131 1    
   130   66   67 am   BACKBONE|DICT|INTERRES
   131   66   68 2    
   132   67  132 1    
   133   67  133 1    
   134   69   70 1    
   135   69  134 1    
   136   69  135 1    
   137   70   71 1    
   138   71  136 1    
   139   71  137 1    
@<TRIPOS>SUBSTRUCTURE
     1 UNK         1 GROUP             0       ****    0 ROOT    
