@<TRIPOS>MOLECULE
3R137
137   139    1
SMALL
USER_CHARGES


@<TRIPOS>ATOM
      1 CA         25.2038   -6.2779    0.2547 C.3       0 UNK        -0.2020 
      2 C          26.0231   -5.0250   -0.0139 C.2       0 UNK         0.4855 
      3 O          25.9153   -4.0492    0.7303 O.2       0 UNK        -0.5197 
      4 N          26.8375   -5.0346   -1.0766 N.am      1 UNK        -0.4892 
      5 CA         27.7094   -3.9296   -1.4936 C.3       1 UNK         0.0835 
      6 C6         28.9112   -4.4341   -2.3320 C.3       12 UNK        -0.0855 
      7 S7         30.1460   -5.3151   -1.3119 S.3       12 UNK        -0.2931 
      8 C8         31.0760   -3.9476   -0.5261 C.3       12 UNK         0.0378 
      9 C9         31.5706   -2.9236   -1.5387 C.ar      12 UNK        -0.0802 
     10 C10        32.6040   -3.2502   -2.4187 C.ar      12 UNK        -0.0944 
     11 C11        32.9939   -2.3525   -3.4153 C.ar      12 UNK        -0.0787 
     12 C12        32.3514   -1.1141   -3.5213 C.ar      12 UNK        -0.0862 
     13 C13        31.3222   -0.7666   -2.6400 C.ar      12 UNK        -0.0733 
     14 C14        30.9564   -1.6704   -1.6337 C.ar      12 UNK        -0.0832 
     15 C15        30.5996    0.5713   -2.8008 C.3       12 UNK         0.0240 
     16 S16        28.7925    0.3857   -2.6631 S.3       12 UNK        -0.2522 
     17 C17        28.1352    1.8459   -3.5387 C.3       12 UNK        -0.0967 
     18 CA         27.9775    1.6523   -5.0746 C.3       5 UNK         0.0660 
     19 N          27.5906    0.2955   -5.4596 N.am      5 UNK        -0.4015 
     20 C          27.7176   -0.2223   -6.6870 C.2       4 UNK         0.4946 
     21 O          28.2294    0.3714   -7.6391 O.2       4 UNK        -0.5353 
     22 CA         27.1877   -1.6489   -6.8861 C.3       4 UNK         0.0277 
     23 CB         28.3114   -2.6694   -6.6427 C.3       4 UNK        -0.1981 
     24 N          26.0475   -1.9451   -6.0126 N.am      4 UNK        -0.4209 
     25 C          24.8167   -1.4425   -6.1941 C.2       3 UNK         0.4942 
     26 O          24.5169   -0.6957   -7.1245 O.2       3 UNK        -0.5208 
     27 CA         23.7472   -1.7910   -5.1434 C.3       3 UNK         0.0250 
     28 CB         23.1143   -3.1575   -5.4491 C.3       3 UNK        -0.1990 
     29 N          24.2488   -1.7795   -3.7671 N.am      3 UNK        -0.4232 
     30 C          24.7832   -0.7114   -3.1599 C.2       2 UNK         0.4993 
     31 O          24.8956    0.3932   -3.6903 O.2       2 UNK        -0.5286 
     32 CA         25.3206   -0.9055   -1.7345 C.3       2 UNK         0.0209 
     33 CB         24.1920   -0.7063   -0.7106 C.3       2 UNK        -0.1931 
     34 N          26.0067   -2.1746   -1.4549 N.am      2 UNK        -0.4546 
     35 C          26.9169   -2.8122   -2.2065 C.2       1 UNK         0.5154 
     36 O          27.1417   -2.5532   -3.3905 O.2       1 UNK        -0.5181 
     37 C          26.9781    2.6654   -5.6658 C.2       5 UNK         0.5014 
     38 O          27.3948    3.6267   -6.3114 O.2       5 UNK        -0.5248 
     39 N          25.6756    2.4033   -5.4702 N.am      6 UNK        -0.4434 
     40 CA         24.5548    3.2044   -5.9719 C.3       6 UNK         0.0363 
     41 CB         23.2398    2.6661   -5.3862 C.3       6 UNK        -0.1936 
     42 C          24.4758    3.2557   -7.5060 C.2       6 UNK         0.5081 
     43 O          24.1410    4.3040   -8.0577 O.2       6 UNK        -0.5248 
     44 N          24.8185    2.1430   -8.1705 N.am      7 UNK        -0.4718 
     45 CA         24.9427    2.0512   -9.6291 C.3       7 UNK         0.0273 
     46 CB         24.9641    0.5683  -10.0368 C.3       7 UNK        -0.1935 
     47 C          26.1826    2.7710  -10.1946 C.2       7 UNK         0.5018 
     48 O          26.2847    2.8993  -11.4152 O.2       7 UNK        -0.5186 
     49 N          27.1084    3.1916   -9.3168 N.am      8 UNK        -0.4240 
     50 CA         28.4168    3.7867   -9.6120 C.3       8 UNK         0.0235 
     51 CB         28.2654    5.1513  -10.3179 C.3       8 UNK        -0.2000 
     52 C          29.3644    2.8239  -10.3543 C.2       8 UNK         0.4941 
     53 O          30.2539    3.2774  -11.0768 O.2       8 UNK        -0.5273 
     54 N          29.1689    1.5133  -10.1517 N.am      9 UNK        -0.4262 
     55 CA         30.0413    0.4566  -10.6574 C.3       9 UNK         0.0264 
     56 CB         29.2529   -0.8589  -10.7768 C.3       9 UNK        -0.1955 
     57 C          31.2570    0.2932   -9.7379 C.2       9 UNK         0.5031 
     58 O          32.3825    0.2374  -10.2337 O.2       9 UNK        -0.5390 
     59 N          30.9956    0.2376   -8.4204 N.am      10 UNK        -0.4204 
     60 CA         31.9542    0.2172   -7.3060 C.3       10 UNK         0.0237 
     61 CB         32.4267    1.6548   -7.0102 C.3       10 UNK        -0.1985 
     62 C          33.1258   -0.7737   -7.4833 C.2       10 UNK         0.4970 
     63 O          34.2748   -0.4252   -7.2067 O.2       10 UNK        -0.4914 
     64 N          32.8019   -1.9836   -7.9578 N.am      11 UNK        -0.4285 
     65 CA         33.7329   -3.0837   -8.2713 C.3       11 UNK         0.1007 
     66 C          34.6463   -2.8404   -9.5125 C.2       11 UNK         0.5703 
     67 N          34.4225   -1.8142  -10.3248 N.am      11 UNK        -0.7361 
     68 O          35.5606   -3.6206   -9.7695 O.2       11 UNK        -0.4986 
     69 C69        34.5395   -3.5989   -7.0412 C.3       12 UNK        -0.0947 
     70 S70        33.4843   -3.9619   -5.5979 S.3       12 UNK        -0.2240 
     71 C71        34.0894   -2.7360   -4.3950 C.3       12 UNK         0.0194 
     72 H72        25.4395   -6.6749    1.2417 H         1 UNK         0.0906 
     73 H73        24.1400   -6.0435    0.2269 H         1 UNK         0.0906 
     74 H74        25.3988   -7.0588   -0.4801 H         1 UNK         0.0906 
     75 H75        26.8776   -5.8592   -1.6591 H         1 UNK         0.3140 
     76 H76        28.1168   -3.4606   -0.5954 H         1 UNK         0.1085 
     77 H77        28.5673   -5.1064   -3.1199 H         1 UNK         0.0836 
     78 H78        29.4091   -3.6192   -2.8586 H         1 UNK         0.0836 
     79 H79        31.9286   -4.3641    0.0123 H         1 UNK         0.0731 
     80 H80        30.4462   -3.4724    0.2273 H         1 UNK         0.0731 
     81 H81        33.0777   -4.2206   -2.3543 H         1 UNK         0.1312 
     82 H82        32.6480   -0.4245   -4.2992 H         1 UNK         0.1406 
     83 H83        30.1567   -1.4154   -0.9521 H         1 UNK         0.1631 
     84 H84        30.8331    1.0123   -3.7713 H         1 UNK         0.0717 
     85 H85        30.9517    1.2701   -2.0412 H         1 UNK         0.0717 
     86 H86        27.1715    2.0640   -3.0734 H         1 UNK         0.0934 
     87 H87        28.7668    2.7108   -3.3278 H         1 UNK         0.0934 
     88 H88        28.9514    1.8480   -5.5290 H         1 UNK         0.0739 
     89 H89        27.1911   -0.2784   -4.7293 H         1 UNK         0.3093 
     90 H90        26.8601   -1.7396   -7.9239 H         1 UNK         0.0818 
     91 H91        29.1501   -2.4950   -7.3179 H         1 UNK         0.0819 
     92 H92        28.6976   -2.6134   -5.6237 H         1 UNK         0.0819 
     93 H93        27.9652   -3.6887   -6.8135 H         1 UNK         0.0819 
     94 H94        26.2473   -2.4659   -5.1631 H         1 UNK         0.3041 
     95 H95        22.9658   -1.0311   -5.2114 H         1 UNK         0.0784 
     96 H96        22.7166   -3.1842   -6.4648 H         1 UNK         0.0793 
     97 H97        23.8388   -3.9682   -5.3612 H         1 UNK         0.0793 
     98 H98        22.2858   -3.3716   -4.7735 H         1 UNK         0.0793 
     99 H99        24.2220   -2.6514   -3.2589 H         1 UNK         0.3024 
    100 H100       26.0568   -0.1161   -1.5740 H         1 UNK         0.1171 
    101 H101       24.5792   -0.6863    0.3084 H         1 UNK         0.0786 
    102 H102       23.6739    0.2398   -0.8760 H         1 UNK         0.0786 
    103 H103       23.4483   -1.5018   -0.7707 H         1 UNK         0.0786 
    104 H104       25.8704   -2.5535   -0.5214 H         1 UNK         0.2977 
    105 H105       25.4231    1.5987   -4.8948 H         1 UNK         0.3127 
    106 H106       24.6962    4.2268   -5.6152 H         1 UNK         0.0770 
    107 H107       23.0624    1.6312   -5.6822 H         1 UNK         0.0814 
    108 H108       22.3879    3.2559   -5.7274 H         1 UNK         0.0814 
    109 H109       23.2459    2.7047   -4.2968 H         1 UNK         0.0814 
    110 H110       25.0018    1.2941   -7.6452 H         1 UNK         0.2983 
    111 H111       24.0649    2.5191  -10.0800 H         1 UNK         0.0947 
    112 H112       25.0361    0.4571  -11.1197 H         1 UNK         0.0806 
    113 H113       24.0537    0.0579   -9.7221 H         1 UNK         0.0806 
    114 H114       25.8128    0.0425   -9.5974 H         1 UNK         0.0806 
    115 H115       26.9189    3.0560   -8.3302 H         1 UNK         0.3000 
    116 H116       28.8843    3.9710   -8.6435 H         1 UNK         0.0850 
    117 H117       29.2262    5.6623  -10.3907 H         1 UNK         0.0810 
    118 H118       27.5914    5.8086   -9.7684 H         1 UNK         0.0810 
    119 H119       27.8788    5.0440  -11.3316 H         1 UNK         0.0810 
    120 H120       28.4634    1.2338   -9.4783 H         1 UNK         0.3040 
    121 H121       30.3985    0.7306  -11.6526 H         1 UNK         0.0766 
    122 H122       28.4114   -0.7519  -11.4616 H         1 UNK         0.0812 
    123 H123       28.8588   -1.1927   -9.8165 H         1 UNK         0.0812 
    124 H124       29.8865   -1.6574  -11.1651 H         1 UNK         0.0812 
    125 H125       30.0154    0.2852   -8.1463 H         1 UNK         0.3205 
    126 H126       31.3961   -0.1311   -6.4356 H         1 UNK         0.0754 
    127 H127       33.0622    1.6883   -6.1242 H         1 UNK         0.0769 
    128 H128       31.5821    2.3190   -6.8259 H         1 UNK         0.0769 
    129 H129       33.0003    2.0654   -7.8422 H         1 UNK         0.0769 
    130 H130       31.8342   -2.1644   -8.1769 H         1 UNK         0.2981 
    131 H131       33.0845   -3.9040   -8.5806 H         1 UNK         0.0541 
    132 H132       33.6776   -1.1456  -10.1466 H         1 UNK         0.3459 
    133 H133       35.0198   -1.6880  -11.1257 H         1 UNK         0.3459 
    134 H134       35.3198   -2.8875   -6.7674 H         1 UNK         0.0612 
    135 H135       35.0603   -4.5237   -7.2950 H         1 UNK         0.0612 
    136 H136       34.9431   -3.1510   -3.8575 H         1 UNK         0.0624 
    137 H137       34.4531   -1.8465   -4.9098 H         1 UNK         0.0624 
@<TRIPOS>BOND
     1    1    2 1    
     2    1   72 1    
     3    1   73 1    
     4    1   74 1    
     5    2    3 2    
     6    2    4 am   BACKBONE|DICT|INTERRES
     7    4    5 1    
     8    4   75 1    
     9    5    6 1    
    10    5   35 1    
    11    5   76 1    
    12    6    7 1    
    13    6   77 1    
    14    6   78 1    
    15    7    8 1    
    16    8    9 1    
    17    8   79 1    
    18    8   80 1    
    19    9   10 ar   
    20    9   14 ar   
    21   10   11 ar   
    22   10   81 1    
    23   11   12 ar   
    24   11   71 1    
    25   12   13 ar   
    26   12   82 1    
    27   13   14 ar   
    28   13   15 1    
    29   14   83 1    
    30   15   16 1    
    31   15   84 1    
    32   15   85 1    
    33   16   17 1    
    34   17   18 1    
    35   17   86 1    
    36   17   87 1    
    37   18   19 1    
    38   18   37 1    
    39   18   88 1    
    40   19   20 am   BACKBONE|DICT|INTERRES
    41   19   89 1    
    42   20   21 2    
    43   20   22 1    
    44   22   23 1    
    45   22   24 1    
    46   22   90 1    
    47   23   91 1    
    48   23   92 1    
    49   23   93 1    
    50   24   25 am   BACKBONE|DICT|INTERRES
    51   24   94 1    
    52   25   26 2    
    53   25   27 1    
    54   27   28 1    
    55   27   29 1    
    56   27   95 1    
    57   28   96 1    
    58   28   97 1    
    59   28   98 1    
    60   29   30 am   BACKBONE|DICT|INTERRES
    61   29   99 1    
    62   30   31 2    
    63   30   32 1    
    64   32   33 1    
    65   32   34 1    
    66   32  100 1    
    67   33  101 1    
    68   33  102 1    
    69   33  103 1    
    70   34   35 am   BACKBONE|DICT|INTERRES
    71   34  104 1    
    72   35   36 2    
    73   37   38 2    
    74   37   39 am   BACKBONE|DICT|INTERRES
    75   39   40 1    
    76   39  105 1    
    77   40   41 1    
    78   40   42 1    
    79   40  106 1    
    80   41  107 1    
    81   41  108 1    
    82   41  109 1    
    83   42   43 2    
    84   42   44 am   BACKBONE|DICT|INTERRES
    85   44   45 1    
    86   44  110 1    
    87   45   46 1    
    88   45   47 1    
    89   45  111 1    
    90   46  112 1    
    91   46  113 1    
    92   46  114 1    
    93   47   48 2    
    94   47   49 am   BACKBONE|DICT|INTERRES
    95   49   50 1    
    96   49  115 1    
    97   50   51 1    
    98   50   52 1    
    99   50  116 1    
   100   51  117 1    
   101   51  118 1    
   102   51  119 1    
   103   52   53 2    
   104   52   54 am   BACKBONE|DICT|INTERRES
   105   54   55 1    
   106   54  120 1    
   107   55   56 1    
   108   55   57 1    
   109   55  121 1    
   110   56  122 1    
   111   56  123 1    
   112   56  124 1    
   113   57   58 2    
   114   57   59 am   BACKBONE|DICT|INTERRES
   115   59   60 1    
   116   59  125 1    
   117   60   61 1    
   118   60   62 1    
   119   60  126 1    
   120   61  127 1    
   121   61  128 1    
   122   61  129 1    
   123   62   63 2    
   124   62   64 am   BACKBONE|DICT|INTERRES
   125   64   65 1    
   126   64  130 1    
   127   65   66 1    
   128   65   69 1    
   129   65  131 1    
   130   66   67 am   BACKBONE|DICT|INTERRES
   131   66   68 2    
   132   67  132 1    
   133   67  133 1    
   134   69   70 1    
   135   69  134 1    
   136   69  135 1    
   137   70   71 1    
   138   71  136 1    
   139   71  137 1    
@<TRIPOS>SUBSTRUCTURE
     1 UNK         1 GROUP             0       ****    0 ROOT    
