@<TRIPOS>MOLECULE
3R137
137   139    1
SMALL
USER_CHARGES


@<TRIPOS>ATOM
      1 CA         26.7424   -6.7964   -3.9827 C.3       0 UNK        -0.2020 
      2 C          26.7755   -6.0521   -2.6562 C.2       0 UNK         0.4855 
      3 O          27.3458   -6.5534   -1.6875 O.2       0 UNK        -0.5197 
      4 N          26.1532   -4.8708   -2.5992 N.am      1 UNK        -0.4892 
      5 CA         25.9368   -4.0803   -1.3896 C.3       1 UNK         0.0835 
      6 C6         27.2197   -3.3703   -0.8624 C.3       12 UNK        -0.0855 
      7 S7         27.7789   -1.9019   -1.8053 S.3       12 UNK        -0.2931 
      8 C8         29.5655   -1.8910   -1.4247 C.3       12 UNK         0.0378 
      9 C9         30.4039   -2.3205   -2.6213 C.ar      12 UNK        -0.0802 
     10 C10        31.4688   -1.5270   -3.0603 C.ar      12 UNK        -0.0944 
     11 C11        32.2137   -1.8934   -4.1861 C.ar      12 UNK        -0.0787 
     12 C12        31.8751   -3.0596   -4.8827 C.ar      12 UNK        -0.0862 
     13 C13        30.8082   -3.8556   -4.4569 C.ar      12 UNK        -0.0733 
     14 C14        30.1057   -3.5016   -3.3037 C.ar      12 UNK        -0.0832 
     15 C15        30.3965   -5.0887   -5.2465 C.3       12 UNK         0.0240 
     16 S16        29.3464   -4.6767   -6.6830 S.3       12 UNK        -0.2522 
     17 C17        27.8673   -3.9021   -5.9305 C.3       12 UNK        -0.0967 
     18 CA         27.4051   -2.5975   -6.6266 C.3       5 UNK         0.0660 
     19 N          26.1525   -2.0957   -6.0509 N.am      5 UNK        -0.4015 
     20 C          25.3822   -1.1581   -6.6209 C.2       4 UNK         0.4946 
     21 O          25.6190   -0.6405   -7.7119 O.2       4 UNK        -0.5353 
     22 CA         24.1702   -0.6849   -5.8103 C.3       4 UNK         0.0277 
     23 CB         23.0493   -1.7371   -5.8182 C.3       4 UNK        -0.1981 
     24 N          24.5298   -0.3487   -4.4317 N.am      4 UNK        -0.4209 
     25 C          25.2467    0.7289   -4.0775 C.2       3 UNK         0.4942 
     26 O          25.7398    1.5005   -4.8996 O.2       3 UNK        -0.5208 
     27 CA         25.4928    0.9965   -2.5767 C.3       3 UNK         0.0250 
     28 CB         25.1361    2.4460   -2.1880 C.3       3 UNK        -0.1990 
     29 N          24.8652    0.0279   -1.6686 N.am      3 UNK        -0.4232 
     30 C          23.5591   -0.2008   -1.4562 C.2       2 UNK         0.4993 
     31 O          22.6549    0.4853   -1.9338 O.2       2 UNK        -0.5286 
     32 CA         23.2095   -1.4424   -0.6046 C.3       2 UNK         0.0209 
     33 CB         21.8518   -2.0597   -1.0051 C.3       2 UNK        -0.1931 
     34 N          24.2595   -2.4774   -0.5992 N.am      2 UNK        -0.4546 
     35 C          24.7724   -3.1132   -1.6650 C.2       1 UNK         0.5154 
     36 O          24.4072   -2.9157   -2.8302 O.2       1 UNK        -0.5181 
     37 C          28.4804   -1.4894   -6.6657 C.2       5 UNK         0.5014 
     38 O          29.1607   -1.3515   -7.6834 O.2       5 UNK        -0.5248 
     39 N          28.5514   -0.6726   -5.6013 N.am      6 UNK        -0.4434 
     40 CA         29.4271    0.4986   -5.5042 C.3       6 UNK         0.0363 
     41 CB         29.2767    1.1545   -4.1222 C.3       6 UNK        -0.1936 
     42 C          29.1772    1.5307   -6.6162 C.2       6 UNK         0.5081 
     43 O          30.1380    2.0382   -7.1955 O.2       6 UNK        -0.5248 
     44 N          27.8985    1.8075   -6.9066 N.am      7 UNK        -0.4718 
     45 CA         27.4722    2.6768   -8.0017 C.3       7 UNK         0.0273 
     46 CB         25.9901    3.0442   -7.8269 C.3       7 UNK        -0.1935 
     47 C          27.7205    2.0473   -9.3810 C.2       7 UNK         0.5018 
     48 O          28.2542    2.7264  -10.2578 O.2       7 UNK        -0.5186 
     49 N          27.3443    0.7700   -9.5488 N.am      8 UNK        -0.4240 
     50 CA         27.4645    0.0228  -10.8056 C.3       8 UNK         0.0235 
     51 CB         26.7613   -1.3377  -10.6774 C.3       8 UNK        -0.2000 
     52 C          28.9156   -0.1629  -11.2759 C.2       8 UNK         0.4941 
     53 O          29.1961    0.0450  -12.4571 O.2       8 UNK        -0.5273 
     54 N          29.8118   -0.5305  -10.3503 N.am      9 UNK        -0.4262 
     55 CA         31.2464   -0.6775  -10.6126 C.3       9 UNK         0.0264 
     56 CB         31.8300   -1.7040   -9.6291 C.3       9 UNK        -0.1955 
     57 C          32.0156    0.6567  -10.5476 C.2       9 UNK         0.5031 
     58 O          33.1887    0.6829  -10.9219 O.2       9 UNK        -0.5390 
     59 N          31.3587    1.7267  -10.0720 N.am      10 UNK        -0.4204 
     60 CA         31.8644    3.0945   -9.8847 C.3       10 UNK         0.0237 
     61 CB         32.2404    3.7363  -11.2371 C.3       10 UNK        -0.1985 
     62 C          32.9882    3.2176   -8.8337 C.2       10 UNK         0.4970 
     63 O          33.7108    4.2160   -8.8293 O.2       10 UNK        -0.4914 
     64 N          33.1044    2.2179   -7.9542 N.am      11 UNK        -0.4285 
     65 CA         34.0310    2.1735   -6.8159 C.3       11 UNK         0.1007 
     66 C          33.4831    2.8578   -5.5310 C.2       11 UNK         0.5703 
     67 N          32.2035    3.2051   -5.4545 N.am      11 UNK        -0.7361 
     68 O          34.2414    3.0973   -4.5943 O.2       11 UNK        -0.4986 
     69 C69        34.5267    0.7266   -6.5514 C.3       12 UNK        -0.0947 
     70 S70        33.1704   -0.4798   -6.3670 S.3       12 UNK        -0.2240 
     71 C71        33.3782   -1.0252   -4.6464 C.3       12 UNK         0.0194 
     72 H72        26.4793   -7.8410   -3.8185 H         1 UNK         0.0906 
     73 H73        26.0078   -6.3737   -4.6673 H         1 UNK         0.0906 
     74 H74        27.7192   -6.7660   -4.4623 H         1 UNK         0.0906 
     75 H75        25.6386   -4.5090   -3.3931 H         1 UNK         0.3140 
     76 H76        25.5879   -4.7697   -0.6171 H         1 UNK         0.1085 
     77 H77        27.0580   -3.0480    0.1675 H         1 UNK         0.0836 
     78 H78        28.0353   -4.0919   -0.8048 H         1 UNK         0.0836 
     79 H79        29.8364   -0.8808   -1.1141 H         1 UNK         0.0731 
     80 H80        29.7868   -2.5379   -0.5751 H         1 UNK         0.0731 
     81 H81        31.7129   -0.6165   -2.5303 H         1 UNK         0.1312 
     82 H82        32.4288   -3.3353   -5.7699 H         1 UNK         0.1406 
     83 H83        29.2897   -4.1223   -2.9602 H         1 UNK         0.1631 
     84 H84        29.8736   -5.7977   -4.6041 H         1 UNK         0.0717 
     85 H85        31.2885   -5.6062   -5.6026 H         1 UNK         0.0717 
     86 H86        27.0645   -4.6369   -5.9937 H         1 UNK         0.0934 
     87 H87        28.0181   -3.7259   -4.8682 H         1 UNK         0.0934 
     88 H88        27.1897   -2.8547   -7.6657 H         1 UNK         0.0739 
     89 H89        25.8814   -2.4492   -5.1450 H         1 UNK         0.3093 
     90 H90        23.7860    0.2192   -6.2881 H         1 UNK         0.0818 
     91 H91        22.1629   -1.3726   -5.2987 H         1 UNK         0.0819 
     92 H92        22.7497   -1.9787   -6.8389 H         1 UNK         0.0819 
     93 H93        23.3560   -2.6676   -5.3393 H         1 UNK         0.0819 
     94 H94        24.2072   -0.9813   -3.7085 H         1 UNK         0.3041 
     95 H95        26.5667    0.8781   -2.4292 H         1 UNK         0.0784 
     96 H96        25.7249    3.1604   -2.7649 H         1 UNK         0.0793 
     97 H97        24.0857    2.6710   -2.3742 H         1 UNK         0.0793 
     98 H98        25.3400    2.6365   -1.1344 H         1 UNK         0.0793 
     99 H99        25.5135   -0.6163   -1.2352 H         1 UNK         0.3024 
    100 H100       23.1201   -1.0823    0.4219 H         1 UNK         0.1171 
    101 H101       21.6128   -2.9266   -0.3892 H         1 UNK         0.0786 
    102 H102       21.8430   -2.3767   -2.0486 H         1 UNK         0.0786 
    103 H103       21.0402   -1.3422   -0.8773 H         1 UNK         0.0786 
    104 H104       24.6414   -2.6947    0.3119 H         1 UNK         0.2977 
    105 H105       27.9558   -0.8580   -4.8092 H         1 UNK         0.3127 
    106 H106       30.4518    0.1404   -5.6032 H         1 UNK         0.0770 
    107 H107       28.3028    1.6276   -4.0001 H         1 UNK         0.0814 
    108 H108       30.0305    1.9291   -3.9800 H         1 UNK         0.0814 
    109 H109       29.4008    0.4332   -3.3168 H         1 UNK         0.0814 
    110 H110       27.1634    1.4016   -6.3354 H         1 UNK         0.2983 
    111 H111       28.0573    3.5978   -7.9486 H         1 UNK         0.0947 
    112 H112       25.6502    3.6961   -8.6327 H         1 UNK         0.0806 
    113 H113       25.8232    3.5734   -6.8885 H         1 UNK         0.0806 
    114 H114       25.3508    2.1604   -7.8271 H         1 UNK         0.0806 
    115 H115       26.8780    0.2924   -8.7799 H         1 UNK         0.3000 
    116 H116       26.9443    0.5984  -11.5742 H         1 UNK         0.0850 
    117 H117       26.8197   -1.8983  -11.6113 H         1 UNK         0.0810 
    118 H118       25.7048   -1.2171  -10.4376 H         1 UNK         0.0810 
    119 H119       27.2135   -1.9519   -9.8985 H         1 UNK         0.0810 
    120 H120       29.4993   -0.7242   -9.3984 H         1 UNK         0.3040 
    121 H121       31.3845   -1.0725  -11.6213 H         1 UNK         0.0766 
    122 H122       32.9062   -1.8193   -9.7644 H         1 UNK         0.0812 
    123 H123       31.3771   -2.6858   -9.7682 H         1 UNK         0.0812 
    124 H124       31.6585   -1.4077   -8.5957 H         1 UNK         0.0812 
    125 H125       30.3999    1.5882   -9.7798 H         1 UNK         0.3205 
    126 H126       31.0239    3.6598   -9.4791 H         1 UNK         0.0754 
    127 H127       32.4608    4.7980  -11.1202 H         1 UNK         0.0769 
    128 H128       31.4229    3.6546  -11.9537 H         1 UNK         0.0769 
    129 H129       33.1217    3.2686  -11.6769 H         1 UNK         0.0769 
    130 H130       32.4284    1.4682   -7.9919 H         1 UNK         0.2981 
    131 H131       34.9148    2.7533   -7.0878 H         1 UNK         0.0541 
    132 H132       31.5598    2.9593   -6.1992 H         1 UNK         0.3459 
    133 H133       31.8686    3.6678   -4.6257 H         1 UNK         0.3459 
    134 H134       35.1865    0.6895   -5.6826 H         1 UNK         0.0612 
    135 H135       35.1365    0.3983   -7.3943 H         1 UNK         0.0612 
    136 H136       34.3074   -1.5891   -4.5564 H         1 UNK         0.0624 
    137 H137       33.4784   -0.1455   -4.0085 H         1 UNK         0.0624 
@<TRIPOS>BOND
     1    1    2 1    
     2    1   72 1    
     3    1   73 1    
     4    1   74 1    
     5    2    3 2    
     6    2    4 am   BACKBONE|DICT|INTERRES
     7    4    5 1    
     8    4   75 1    
     9    5    6 1    
    10    5   35 1    
    11    5   76 1    
    12    6    7 1    
    13    6   77 1    
    14    6   78 1    
    15    7    8 1    
    16    8    9 1    
    17    8   79 1    
    18    8   80 1    
    19    9   10 ar   
    20    9   14 ar   
    21   10   11 ar   
    22   10   81 1    
    23   11   12 ar   
    24   11   71 1    
    25   12   13 ar   
    26   12   82 1    
    27   13   14 ar   
    28   13   15 1    
    29   14   83 1    
    30   15   16 1    
    31   15   84 1    
    32   15   85 1    
    33   16   17 1    
    34   17   18 1    
    35   17   86 1    
    36   17   87 1    
    37   18   19 1    
    38   18   37 1    
    39   18   88 1    
    40   19   20 am   BACKBONE|DICT|INTERRES
    41   19   89 1    
    42   20   21 2    
    43   20   22 1    
    44   22   23 1    
    45   22   24 1    
    46   22   90 1    
    47   23   91 1    
    48   23   92 1    
    49   23   93 1    
    50   24   25 am   BACKBONE|DICT|INTERRES
    51   24   94 1    
    52   25   26 2    
    53   25   27 1    
    54   27   28 1    
    55   27   29 1    
    56   27   95 1    
    57   28   96 1    
    58   28   97 1    
    59   28   98 1    
    60   29   30 am   BACKBONE|DICT|INTERRES
    61   29   99 1    
    62   30   31 2    
    63   30   32 1    
    64   32   33 1    
    65   32   34 1    
    66   32  100 1    
    67   33  101 1    
    68   33  102 1    
    69   33  103 1    
    70   34   35 am   BACKBONE|DICT|INTERRES
    71   34  104 1    
    72   35   36 2    
    73   37   38 2    
    74   37   39 am   BACKBONE|DICT|INTERRES
    75   39   40 1    
    76   39  105 1    
    77   40   41 1    
    78   40   42 1    
    79   40  106 1    
    80   41  107 1    
    81   41  108 1    
    82   41  109 1    
    83   42   43 2    
    84   42   44 am   BACKBONE|DICT|INTERRES
    85   44   45 1    
    86   44  110 1    
    87   45   46 1    
    88   45   47 1    
    89   45  111 1    
    90   46  112 1    
    91   46  113 1    
    92   46  114 1    
    93   47   48 2    
    94   47   49 am   BACKBONE|DICT|INTERRES
    95   49   50 1    
    96   49  115 1    
    97   50   51 1    
    98   50   52 1    
    99   50  116 1    
   100   51  117 1    
   101   51  118 1    
   102   51  119 1    
   103   52   53 2    
   104   52   54 am   BACKBONE|DICT|INTERRES
   105   54   55 1    
   106   54  120 1    
   107   55   56 1    
   108   55   57 1    
   109   55  121 1    
   110   56  122 1    
   111   56  123 1    
   112   56  124 1    
   113   57   58 2    
   114   57   59 am   BACKBONE|DICT|INTERRES
   115   59   60 1    
   116   59  125 1    
   117   60   61 1    
   118   60   62 1    
   119   60  126 1    
   120   61  127 1    
   121   61  128 1    
   122   61  129 1    
   123   62   63 2    
   124   62   64 am   BACKBONE|DICT|INTERRES
   125   64   65 1    
   126   64  130 1    
   127   65   66 1    
   128   65   69 1    
   129   65  131 1    
   130   66   67 am   BACKBONE|DICT|INTERRES
   131   66   68 2    
   132   67  132 1    
   133   67  133 1    
   134   69   70 1    
   135   69  134 1    
   136   69  135 1    
   137   70   71 1    
   138   71  136 1    
   139   71  137 1    
@<TRIPOS>SUBSTRUCTURE
     1 UNK         1 GROUP             0       ****    0 ROOT    
