@<TRIPOS>MOLECULE
3R137
137   139    1
SMALL
USER_CHARGES


@<TRIPOS>ATOM
      1 CA         27.1403   -7.0649   -3.6735 C.3       0 UNK        -0.2020 
      2 C          27.0489   -5.9705   -2.6210 C.2       0 UNK         0.4855 
      3 O          25.9541   -5.6750   -2.1394 O.2       0 UNK        -0.5197 
      4 N          28.1911   -5.3660   -2.2637 N.am      1 UNK        -0.4892 
      5 CA         28.3141   -4.2635   -1.3024 C.3       1 UNK         0.0835 
      6 C6         29.8008   -3.8889   -1.0829 C.3       12 UNK        -0.0855 
      7 S7         30.0560   -2.6713    0.2582 S.3       12 UNK        -0.2931 
      8 C8         31.5159   -1.7420   -0.3247 C.3       12 UNK         0.0378 
      9 C9         31.2701   -1.0461   -1.6570 C.ar      12 UNK        -0.0802 
     10 C10        31.8844   -1.5179   -2.8200 C.ar      12 UNK        -0.0944 
     11 C11        31.6223   -0.9211   -4.0558 C.ar      12 UNK        -0.0787 
     12 C12        30.7453    0.1665   -4.1259 C.ar      12 UNK        -0.0862 
     13 C13        30.1371    0.6582   -2.9653 C.ar      12 UNK        -0.0733 
     14 C14        30.4131    0.0547   -1.7333 C.ar      12 UNK        -0.0832 
     15 C15        29.1540    1.8171   -3.0381 C.3       12 UNK         0.0240 
     16 S16        27.4808    1.2466   -2.6051 S.3       12 UNK        -0.2522 
     17 C17        26.4145    2.1021   -3.8097 C.3       12 UNK        -0.0967 
     18 CA         26.5944    1.6190   -5.2712 C.3       5 UNK         0.0660 
     19 N          26.6560    0.1564   -5.3954 N.am      5 UNK        -0.4015 
     20 C          26.9692   -0.5259   -6.5086 C.2       4 UNK         0.4946 
     21 O          27.1283   -0.0062   -7.6130 O.2       4 UNK        -0.5353 
     22 CA         27.0816   -2.0525   -6.3807 C.3       4 UNK         0.0277 
     23 CB         28.5282   -2.4587   -6.0542 C.3       4 UNK        -0.1981 
     24 N          26.1650   -2.5955   -5.3733 N.am      4 UNK        -0.4209 
     25 C          24.8379   -2.6975   -5.5561 C.2       3 UNK         0.4942 
     26 O          24.2719   -2.3794   -6.6025 O.2       3 UNK        -0.5208 
     27 CA         23.9841   -3.2232   -4.3871 C.3       3 UNK         0.0250 
     28 CB         23.7085   -4.7255   -4.5541 C.3       3 UNK        -0.1990 
     29 N          24.5774   -2.9749   -3.0714 N.am      3 UNK        -0.4232 
     30 C          24.7156   -1.7555   -2.5280 C.2       2 UNK         0.4993 
     31 O          24.3013   -0.7247   -3.0591 O.2       2 UNK        -0.5286 
     32 CA         25.4646   -1.6543   -1.1855 C.3       2 UNK         0.0209 
     33 CB         24.4643   -1.6091   -0.0193 C.3       2 UNK        -0.1931 
     34 N          26.4417   -2.7210   -0.9400 N.am      2 UNK        -0.4546 
     35 C          27.4571   -3.0591   -1.7487 C.2       1 UNK         0.5154 
     36 O          27.6848   -2.5175   -2.8323 O.2       1 UNK        -0.5181 
     37 C          25.5521    2.2872   -6.1893 C.2       5 UNK         0.5014 
     38 O          25.6936    3.4740   -6.4881 O.2       5 UNK        -0.5248 
     39 N          24.5627    1.5195   -6.6706 N.am      6 UNK        -0.4434 
     40 CA         23.6122    1.9216   -7.7118 C.3       6 UNK         0.0363 
     41 CB         22.5799    0.7995   -7.9053 C.3       6 UNK        -0.1936 
     42 C          24.2805    2.2770   -9.0568 C.2       6 UNK         0.5081 
     43 O          23.7011    3.0417   -9.8282 O.2       6 UNK        -0.5248 
     44 N          25.4858    1.7448   -9.3014 N.am      7 UNK        -0.4718 
     45 CA         26.3435    2.0583  -10.4438 C.3       7 UNK         0.0273 
     46 CB         26.6036    0.7598  -11.2286 C.3       7 UNK        -0.1935 
     47 C          27.6476    2.7467   -9.9889 C.2       7 UNK         0.5018 
     48 O          28.6423    2.6923  -10.7136 O.2       7 UNK        -0.5186 
     49 N          27.6209    3.3938   -8.8115 N.am      8 UNK        -0.4240 
     50 CA         28.7344    4.0740   -8.1401 C.3       8 UNK         0.0235 
     51 CB         29.2025    5.3071   -8.9477 C.3       8 UNK        -0.2000 
     52 C          29.8575    3.0876   -7.7652 C.2       8 UNK         0.4941 
     53 O          29.5683    2.0330   -7.1992 O.2       8 UNK        -0.5273 
     54 N          31.1184    3.4196   -8.0690 N.am      9 UNK        -0.4262 
     55 CA         32.3007    2.6002   -7.7799 C.3       9 UNK         0.0264 
     56 CB         33.5445    3.5084   -7.7605 C.3       9 UNK        -0.1955 
     57 C          32.4552    1.4042   -8.7443 C.2       9 UNK         0.5031 
     58 O          33.5441    1.1754   -9.2759 O.2       9 UNK        -0.5390 
     59 N          31.3748    0.6399   -8.9468 N.am      10 UNK        -0.4204 
     60 CA         31.3074   -0.5573   -9.7910 C.3       10 UNK         0.0237 
     61 CB         29.8479   -0.7745  -10.2259 C.3       10 UNK        -0.1985 
     62 C          31.9077   -1.7890   -9.0863 C.2       10 UNK         0.4970 
     63 O          31.2510   -2.8255   -8.9756 O.2       10 UNK        -0.4914 
     64 N          33.1373   -1.6337   -8.5884 N.am      11 UNK        -0.4285 
     65 CA         33.8630   -2.6237   -7.7830 C.3       11 UNK         0.1007 
     66 C          34.6905   -3.6415   -8.6201 C.2       11 UNK         0.5703 
     67 N          34.7594   -3.5215   -9.9409 N.am      11 UNK        -0.7361 
     68 O          35.2714   -4.5685   -8.0605 O.2       11 UNK        -0.4986 
     69 C69        34.7382   -1.9298   -6.7020 C.3       12 UNK        -0.0947 
     70 S70        33.8875   -0.7174   -5.6227 S.3       12 UNK        -0.2240 
     71 C71        32.2667   -1.4843   -5.3109 C.3       12 UNK         0.0194 
     72 H72        28.1735   -7.3276   -3.8997 H         1 UNK         0.0906 
     73 H73        26.6326   -7.9638   -3.3248 H         1 UNK         0.0906 
     74 H74        26.6626   -6.7400   -4.5971 H         1 UNK         0.0906 
     75 H75        29.0501   -5.6413   -2.7179 H         1 UNK         0.3140 
     76 H76        27.9225   -4.6328   -0.3520 H         1 UNK         0.1085 
     77 H77        30.3734   -4.7809   -0.8239 H         1 UNK         0.0836 
     78 H78        30.2268   -3.5228   -2.0168 H         1 UNK         0.0836 
     79 H79        32.3660   -2.4227   -0.3938 H         1 UNK         0.0731 
     80 H80        31.7831   -0.9965    0.4256 H         1 UNK         0.0731 
     81 H81        32.5520   -2.3673   -2.7687 H         1 UNK         0.1312 
     82 H82        30.5270    0.6197   -5.0838 H         1 UNK         0.1406 
     83 H83        29.9276    0.4180   -0.8376 H         1 UNK         0.1631 
     84 H84        29.1655    2.2658   -4.0315 H         1 UNK         0.0717 
     85 H85        29.4570    2.6012   -2.3430 H         1 UNK         0.0717 
     86 H86        25.3831    1.9476   -3.4853 H         1 UNK         0.0934 
     87 H87        26.5975    3.1760   -3.7356 H         1 UNK         0.0934 
     88 H88        27.5597    1.9841   -5.6190 H         1 UNK         0.0739 
     89 H89        26.5360   -0.3575   -4.5333 H         1 UNK         0.3093 
     90 H90        26.8221   -2.4858   -7.3492 H         1 UNK         0.0818 
     91 H91        28.8751   -2.0131   -5.1213 H         1 UNK         0.0819 
     92 H92        28.6299   -3.5404   -5.9679 H         1 UNK         0.0819 
     93 H93        29.2087   -2.1305   -6.8414 H         1 UNK         0.0819 
     94 H94        26.5666   -2.8148   -4.4659 H         1 UNK         0.3041 
     95 H95        23.0265   -2.6991   -4.4232 H         1 UNK         0.0784 
     96 H96        23.1964   -4.9247   -5.4965 H         1 UNK         0.0793 
     97 H97        24.6301   -5.3070   -4.5567 H         1 UNK         0.0793 
     98 H98        23.0737   -5.1060   -3.7536 H         1 UNK         0.0793 
     99 H99        24.9620   -3.7760   -2.5819 H         1 UNK         0.3024 
    100 H100       26.0139   -0.7131   -1.1950 H         1 UNK         0.1171 
    101 H101       23.7387   -0.8061   -0.1585 H         1 UNK         0.0786 
    102 H102       24.9677   -1.4252    0.9300 H         1 UNK         0.0786 
    103 H103       23.9055   -2.5417    0.0695 H         1 UNK         0.0786 
    104 H104       26.3141   -3.2491   -0.0887 H         1 UNK         0.2977 
    105 H105       24.5292    0.5527   -6.3781 H         1 UNK         0.3127 
    106 H106       23.0918    2.8146   -7.3596 H         1 UNK         0.0770 
    107 H107       23.0508   -0.1294   -8.2306 H         1 UNK         0.0814 
    108 H108       21.8418    1.0735   -8.6605 H         1 UNK         0.0814 
    109 H109       22.0367    0.5948   -6.9825 H         1 UNK         0.0814 
    110 H110       25.9054    1.1271   -8.6086 H         1 UNK         0.2983 
    111 H111       25.8474    2.7636  -11.1136 H         1 UNK         0.0947 
    112 H112       27.2587    0.9320  -12.0835 H         1 UNK         0.0806 
    113 H113       25.6738    0.3431  -11.6157 H         1 UNK         0.0806 
    114 H114       27.0691    0.0011  -10.5994 H         1 UNK         0.0806 
    115 H115       26.7626    3.3561   -8.2729 H         1 UNK         0.3000 
    116 H116       28.3336    4.4374   -7.1927 H         1 UNK         0.0850 
    117 H117       29.9250    5.8995   -8.3848 H         1 UNK         0.0810 
    118 H118       28.3635    5.9661   -9.1717 H         1 UNK         0.0810 
    119 H119       29.6633    5.0307   -9.8968 H         1 UNK         0.0810 
    120 H120       31.2780    4.2808   -8.5714 H         1 UNK         0.3040 
    121 H121       32.1903    2.1778   -6.7784 H         1 UNK         0.0766 
    122 H122       33.4353    4.3172   -7.0378 H         1 UNK         0.0812 
    123 H123       33.7352    3.9526   -8.7382 H         1 UNK         0.0812 
    124 H124       34.4352    2.9453   -7.4780 H         1 UNK         0.0812 
    125 H125       30.5331    0.8902   -8.4329 H         1 UNK         0.3205 
    126 H126       31.8994   -0.3845  -10.6921 H         1 UNK         0.0754 
    127 H127       29.7503   -1.6526  -10.8654 H         1 UNK         0.0769 
    128 H128       29.4841    0.0793  -10.7964 H         1 UNK         0.0769 
    129 H129       29.1871   -0.9140   -9.3689 H         1 UNK         0.0769 
    130 H130       33.5997   -0.7422   -8.7364 H         1 UNK         0.2981 
    131 H131       33.1281   -3.2399   -7.2643 H         1 UNK         0.0541 
    132 H132       34.2842   -2.7677  -10.4104 H         1 UNK         0.3459 
    133 H133       35.2943   -4.1914  -10.4710 H         1 UNK         0.3459 
    134 H134       35.1868   -2.6799   -6.0480 H         1 UNK         0.0612 
    135 H135       35.5721   -1.4095   -7.1767 H         1 UNK         0.0612 
    136 H136       31.6136   -1.3262   -6.1695 H         1 UNK         0.0624 
    137 H137       32.3848   -2.5628   -5.1987 H         1 UNK         0.0624 
@<TRIPOS>BOND
     1    1    2 1    
     2    1   72 1    
     3    1   73 1    
     4    1   74 1    
     5    2    3 2    
     6    2    4 am   BACKBONE|DICT|INTERRES
     7    4    5 1    
     8    4   75 1    
     9    5    6 1    
    10    5   35 1    
    11    5   76 1    
    12    6    7 1    
    13    6   77 1    
    14    6   78 1    
    15    7    8 1    
    16    8    9 1    
    17    8   79 1    
    18    8   80 1    
    19    9   10 ar   
    20    9   14 ar   
    21   10   11 ar   
    22   10   81 1    
    23   11   12 ar   
    24   11   71 1    
    25   12   13 ar   
    26   12   82 1    
    27   13   14 ar   
    28   13   15 1    
    29   14   83 1    
    30   15   16 1    
    31   15   84 1    
    32   15   85 1    
    33   16   17 1    
    34   17   18 1    
    35   17   86 1    
    36   17   87 1    
    37   18   19 1    
    38   18   37 1    
    39   18   88 1    
    40   19   20 am   BACKBONE|DICT|INTERRES
    41   19   89 1    
    42   20   21 2    
    43   20   22 1    
    44   22   23 1    
    45   22   24 1    
    46   22   90 1    
    47   23   91 1    
    48   23   92 1    
    49   23   93 1    
    50   24   25 am   BACKBONE|DICT|INTERRES
    51   24   94 1    
    52   25   26 2    
    53   25   27 1    
    54   27   28 1    
    55   27   29 1    
    56   27   95 1    
    57   28   96 1    
    58   28   97 1    
    59   28   98 1    
    60   29   30 am   BACKBONE|DICT|INTERRES
    61   29   99 1    
    62   30   31 2    
    63   30   32 1    
    64   32   33 1    
    65   32   34 1    
    66   32  100 1    
    67   33  101 1    
    68   33  102 1    
    69   33  103 1    
    70   34   35 am   BACKBONE|DICT|INTERRES
    71   34  104 1    
    72   35   36 2    
    73   37   38 2    
    74   37   39 am   BACKBONE|DICT|INTERRES
    75   39   40 1    
    76   39  105 1    
    77   40   41 1    
    78   40   42 1    
    79   40  106 1    
    80   41  107 1    
    81   41  108 1    
    82   41  109 1    
    83   42   43 2    
    84   42   44 am   BACKBONE|DICT|INTERRES
    85   44   45 1    
    86   44  110 1    
    87   45   46 1    
    88   45   47 1    
    89   45  111 1    
    90   46  112 1    
    91   46  113 1    
    92   46  114 1    
    93   47   48 2    
    94   47   49 am   BACKBONE|DICT|INTERRES
    95   49   50 1    
    96   49  115 1    
    97   50   51 1    
    98   50   52 1    
    99   50  116 1    
   100   51  117 1    
   101   51  118 1    
   102   51  119 1    
   103   52   53 2    
   104   52   54 am   BACKBONE|DICT|INTERRES
   105   54   55 1    
   106   54  120 1    
   107   55   56 1    
   108   55   57 1    
   109   55  121 1    
   110   56  122 1    
   111   56  123 1    
   112   56  124 1    
   113   57   58 2    
   114   57   59 am   BACKBONE|DICT|INTERRES
   115   59   60 1    
   116   59  125 1    
   117   60   61 1    
   118   60   62 1    
   119   60  126 1    
   120   61  127 1    
   121   61  128 1    
   122   61  129 1    
   123   62   63 2    
   124   62   64 am   BACKBONE|DICT|INTERRES
   125   64   65 1    
   126   64  130 1    
   127   65   66 1    
   128   65   69 1    
   129   65  131 1    
   130   66   67 am   BACKBONE|DICT|INTERRES
   131   66   68 2    
   132   67  132 1    
   133   67  133 1    
   134   69   70 1    
   135   69  134 1    
   136   69  135 1    
   137   70   71 1    
   138   71  136 1    
   139   71  137 1    
@<TRIPOS>SUBSTRUCTURE
     1 UNK         1 GROUP             0       ****    0 ROOT    
