@<TRIPOS>MOLECULE
3R137
137   139    1
SMALL
USER_CHARGES


@<TRIPOS>ATOM
      1 CA         28.4459    0.0899    2.6286 C.3       0 UNK        -0.2020 
      2 C          28.1626   -0.4938    1.2524 C.2       0 UNK         0.4855 
      3 O          27.9980    0.2580    0.2924 O.2       0 UNK        -0.5197 
      4 N          28.1117   -1.8280    1.1493 N.am      1 UNK        -0.4892 
      5 CA         27.7907   -2.5646   -0.0767 C.3       1 UNK         0.0835 
      6 C6         28.1794   -4.0606    0.0715 C.3       12 UNK        -0.0855 
      7 S7         28.1194   -5.0336   -1.4787 S.3       12 UNK        -0.2931 
      8 C8         29.8816   -5.3584   -1.8369 C.3       12 UNK         0.0378 
      9 C9         30.4561   -4.3124   -2.7807 C.ar      12 UNK        -0.0802 
     10 C10        30.7907   -4.6453   -4.0987 C.ar      12 UNK        -0.0944 
     11 C11        31.2720   -3.6675   -4.9758 C.ar      12 UNK        -0.0787 
     12 C12        31.3817   -2.3465   -4.5343 C.ar      12 UNK        -0.0862 
     13 C13        31.0583   -2.0037   -3.2192 C.ar      12 UNK        -0.0733 
     14 C14        30.6332   -2.9995   -2.3394 C.ar      12 UNK        -0.0832 
     15 C15        31.1460   -0.5621   -2.7430 C.3       12 UNK         0.0240 
     16 S16        29.6406    0.3715   -3.1743 S.3       12 UNK        -0.2522 
     17 C17        30.0749    0.9746   -4.8417 C.3       12 UNK        -0.0967 
     18 CA         28.9397    0.9152   -5.8925 C.3       5 UNK         0.0660 
     19 N          28.2307   -0.3680   -5.9569 N.am      5 UNK        -0.4015 
     20 C          28.2125   -1.1479   -7.0471 C.2       4 UNK         0.4946 
     21 O          28.8712   -0.9204   -8.0601 O.2       4 UNK        -0.5353 
     22 CA         27.2491   -2.3488   -7.0566 C.3       4 UNK         0.0277 
     23 CB         27.8751   -3.5506   -6.3343 C.3       4 UNK        -0.1981 
     24 N          25.9369   -2.0625   -6.4750 N.am      4 UNK        -0.4209 
     25 C          25.1357   -1.0361   -6.7959 C.2       3 UNK         0.4942 
     26 O          25.3770   -0.2288   -7.6919 O.2       3 UNK        -0.5208 
     27 CA         23.8762   -0.8254   -5.9381 C.3       3 UNK         0.0250 
     28 CB         22.6456   -1.3959   -6.6600 C.3       3 UNK        -0.1990 
     29 N          23.9379   -1.3795   -4.5778 N.am      3 UNK        -0.4232 
     30 C          24.9090   -1.1984   -3.6692 C.2       2 UNK         0.4993 
     31 O          25.9297   -0.5315   -3.8792 O.2       2 UNK        -0.5286 
     32 CA         24.7312   -1.9221   -2.3249 C.3       2 UNK         0.0209 
     33 CB         24.0047   -3.2817   -2.4557 C.3       2 UNK        -0.1931 
     34 N          26.0502   -2.1132   -1.7330 N.am      2 UNK        -0.4546 
     35 C          26.3063   -2.3782   -0.4488 C.2       1 UNK         0.5154 
     36 O          25.4373   -2.4924    0.4204 O.2       1 UNK        -0.5181 
     37 C          27.9746    2.1052   -5.7682 C.2       5 UNK         0.5014 
     38 O          28.3186    3.1818   -6.2580 O.2       5 UNK        -0.5248 
     39 N          26.7944    1.9225   -5.1545 N.am      6 UNK        -0.4434 
     40 CA         25.8253    3.0039   -4.9438 C.3       6 UNK         0.0363 
     41 CB         24.7937    2.5827   -3.8847 C.3       6 UNK        -0.1936 
     42 C          25.1300    3.5005   -6.2270 C.2       6 UNK         0.5081 
     43 O          24.6202    4.6219   -6.2190 O.2       6 UNK        -0.5248 
     44 N          25.1129    2.6876   -7.2933 N.am      7 UNK        -0.4718 
     45 CA         24.5190    3.0355   -8.5864 C.3       7 UNK         0.0273 
     46 CB         23.1579    2.3337   -8.7390 C.3       7 UNK        -0.1935 
     47 C          25.4525    2.6947   -9.7566 C.2       7 UNK         0.5018 
     48 O          25.6891    3.5553  -10.6049 O.2       7 UNK        -0.5186 
     49 N          25.9524    1.4519   -9.8004 N.am      8 UNK        -0.4240 
     50 CA         26.7469    0.9188  -10.9124 C.3       8 UNK         0.0235 
     51 CB         26.6733   -0.6165  -10.8953 C.3       8 UNK        -0.2000 
     52 C          28.2105    1.3940  -10.9304 C.2       8 UNK         0.4941 
     53 O          28.8238    1.3711  -11.9984 O.2       8 UNK        -0.5273 
     54 N          28.7373    1.8123   -9.7688 N.am      9 UNK        -0.4262 
     55 CA         30.1015    2.3142   -9.5435 C.3       9 UNK         0.0264 
     56 CB         30.2979    3.6770  -10.2422 C.3       9 UNK        -0.1955 
     57 C          31.2100    1.2950   -9.8935 C.2       9 UNK         0.5031 
     58 O          32.2669    1.6864  -10.3952 O.2       9 UNK        -0.5390 
     59 N          30.9577    0.0080   -9.6232 N.am      10 UNK        -0.4204 
     60 CA         31.9084   -1.0898   -9.7982 C.3       10 UNK         0.0237 
     61 CB         31.1193   -2.3871  -10.0565 C.3       10 UNK        -0.1985 
     62 C          32.8320   -1.2294   -8.5741 C.2       10 UNK         0.4970 
     63 O          32.6177   -0.5716   -7.5526 O.2       10 UNK        -0.4914 
     64 N          33.8376   -2.1052   -8.7070 N.am      11 UNK        -0.4285 
     65 CA         34.8749   -2.4134   -7.7023 C.3       11 UNK         0.1007 
     66 C          35.8856   -1.2540   -7.4354 C.2       11 UNK         0.5703 
     67 N          35.9357   -0.2117   -8.2569 N.am      11 UNK        -0.7361 
     68 O          36.6684   -1.3135   -6.4897 O.2       11 UNK        -0.4986 
     69 C69        34.3110   -3.0225   -6.3830 C.3       12 UNK        -0.0947 
     70 S70        33.3512   -4.5592   -6.6222 S.3       12 UNK        -0.2240 
     71 C71        31.6222   -4.0203   -6.4155 C.3       12 UNK         0.0194 
     72 H72        27.6170    0.7224    2.9451 H         1 UNK         0.0906 
     73 H73        29.3480    0.7005    2.5983 H         1 UNK         0.0906 
     74 H74        28.5871   -0.6858    3.3809 H         1 UNK         0.0906 
     75 H75        28.2161   -2.3898    1.9824 H         1 UNK         0.3140 
     76 H76        28.3813   -2.1214   -0.8787 H         1 UNK         0.1085 
     77 H77        29.1830   -4.1361    0.4921 H         1 UNK         0.0836 
     78 H78        27.5269   -4.5486    0.7984 H         1 UNK         0.0836 
     79 H79        30.4672   -5.3979   -0.9177 H         1 UNK         0.0731 
     80 H80        29.9605   -6.3504   -2.2843 H         1 UNK         0.0731 
     81 H81        30.6688   -5.6619   -4.4468 H         1 UNK         0.1312 
     82 H82        31.7173   -1.5871   -5.2235 H         1 UNK         0.1406 
     83 H83        30.4140   -2.7470   -1.3133 H         1 UNK         0.1631 
     84 H84        32.0294   -0.0750   -3.1586 H         1 UNK         0.0717 
     85 H85        31.2699   -0.5333   -1.6593 H         1 UNK         0.0717 
     86 H86        30.4580    1.9926   -4.7433 H         1 UNK         0.0934 
     87 H87        30.9202    0.4079   -5.2261 H         1 UNK         0.0934 
     88 H88        29.4384    1.0845   -6.8465 H         1 UNK         0.0739 
     89 H89        27.6510   -0.6111   -5.1621 H         1 UNK         0.3093 
     90 H90        27.0812   -2.6271   -8.0986 H         1 UNK         0.0818 
     91 H91        28.8089   -3.8381   -6.8151 H         1 UNK         0.0819 
     92 H92        28.0980   -3.3297   -5.2891 H         1 UNK         0.0819 
     93 H93        27.2206   -4.4218   -6.3632 H         1 UNK         0.0819 
     94 H94        25.6415   -2.6628   -5.7200 H         1 UNK         0.3041 
     95 H95        23.7371    0.2519   -5.8473 H         1 UNK         0.0784 
     96 H96        22.5617   -0.9940   -7.6709 H         1 UNK         0.0793 
     97 H97        22.6951   -2.4822   -6.7454 H         1 UNK         0.0793 
     98 H98        21.7237   -1.1405   -6.1373 H         1 UNK         0.0793 
     99 H99        23.1538   -1.9559   -4.3079 H         1 UNK         0.3024 
    100 H100       24.1502   -1.2615   -1.6775 H         1 UNK         0.1171 
    101 H101       22.9764   -3.1604   -2.7972 H         1 UNK         0.0786 
    102 H102       24.5148   -3.9450   -3.1557 H         1 UNK         0.0786 
    103 H103       23.9493   -3.7993   -1.4980 H         1 UNK         0.0786 
    104 H104       26.8173   -1.9476   -2.3724 H         1 UNK         0.2977 
    105 H105       26.5680    1.0243   -4.7340 H         1 UNK         0.3127 
    106 H106       26.3742    3.8565   -4.5373 H         1 UNK         0.0770 
    107 H107       24.1708    1.7578   -4.2243 H         1 UNK         0.0814 
    108 H108       24.1266    3.4109   -3.6421 H         1 UNK         0.0814 
    109 H109       25.2787    2.2766   -2.9574 H         1 UNK         0.0814 
    110 H110       25.5334    1.7684   -7.2214 H         1 UNK         0.2983 
    111 H111       24.3453    4.1127   -8.6391 H         1 UNK         0.0947 
    112 H112       22.6986    2.5765   -9.6982 H         1 UNK         0.0806 
    113 H113       22.4636    2.6465   -7.9591 H         1 UNK         0.0806 
    114 H114       23.2510    1.2487   -8.6867 H         1 UNK         0.0806 
    115 H115       25.7029    0.7923   -9.0626 H         1 UNK         0.3000 
    116 H116       26.2923    1.2605  -11.8450 H         1 UNK         0.0850 
    117 H117       27.2381   -1.0459  -11.7239 H         1 UNK         0.0810 
    118 H118       25.6447   -0.9651  -10.9880 H         1 UNK         0.0810 
    119 H119       27.0825   -1.0291   -9.9746 H         1 UNK         0.0810 
    120 H120       28.1428    1.7672   -8.9544 H         1 UNK         0.3040 
    121 H121       30.1908    2.4946   -8.4724 H         1 UNK         0.0766 
    122 H122       30.2849    3.5806  -11.3283 H         1 UNK         0.0812 
    123 H123       31.2538    4.1244   -9.9673 H         1 UNK         0.0812 
    124 H124       29.5180    4.3836   -9.9584 H         1 UNK         0.0812 
    125 H125       30.0965   -0.2349   -9.1310 H         1 UNK         0.3205 
    126 H126       32.5313   -0.8858  -10.6716 H         1 UNK         0.0754 
    127 H127       31.7841   -3.2269  -10.2611 H         1 UNK         0.0769 
    128 H128       30.4620   -2.2813  -10.9200 H         1 UNK         0.0769 
    129 H129       30.4997   -2.6635   -9.2035 H         1 UNK         0.0769 
    130 H130       33.9365   -2.5952   -9.5841 H         1 UNK         0.2981 
    131 H131       35.4854   -3.1888   -8.1659 H         1 UNK         0.0541 
    132 H132       36.6025    0.5228   -8.0798 H         1 UNK         0.3459 
    133 H133       35.3072   -0.1453   -9.0409 H         1 UNK         0.3459 
    134 H134       33.7269   -2.2824   -5.8427 H         1 UNK         0.0612 
    135 H135       35.1311   -3.2854   -5.7129 H         1 UNK         0.0612 
    136 H136       31.4176   -3.1728   -7.0673 H         1 UNK         0.0624 
    137 H137       30.9755   -4.8278   -6.7608 H         1 UNK         0.0624 
@<TRIPOS>BOND
     1    1    2 1    
     2    1   72 1    
     3    1   73 1    
     4    1   74 1    
     5    2    3 2    
     6    2    4 am   BACKBONE|DICT|INTERRES
     7    4    5 1    
     8    4   75 1    
     9    5    6 1    
    10    5   35 1    
    11    5   76 1    
    12    6    7 1    
    13    6   77 1    
    14    6   78 1    
    15    7    8 1    
    16    8    9 1    
    17    8   79 1    
    18    8   80 1    
    19    9   10 ar   
    20    9   14 ar   
    21   10   11 ar   
    22   10   81 1    
    23   11   12 ar   
    24   11   71 1    
    25   12   13 ar   
    26   12   82 1    
    27   13   14 ar   
    28   13   15 1    
    29   14   83 1    
    30   15   16 1    
    31   15   84 1    
    32   15   85 1    
    33   16   17 1    
    34   17   18 1    
    35   17   86 1    
    36   17   87 1    
    37   18   19 1    
    38   18   37 1    
    39   18   88 1    
    40   19   20 am   BACKBONE|DICT|INTERRES
    41   19   89 1    
    42   20   21 2    
    43   20   22 1    
    44   22   23 1    
    45   22   24 1    
    46   22   90 1    
    47   23   91 1    
    48   23   92 1    
    49   23   93 1    
    50   24   25 am   BACKBONE|DICT|INTERRES
    51   24   94 1    
    52   25   26 2    
    53   25   27 1    
    54   27   28 1    
    55   27   29 1    
    56   27   95 1    
    57   28   96 1    
    58   28   97 1    
    59   28   98 1    
    60   29   30 am   BACKBONE|DICT|INTERRES
    61   29   99 1    
    62   30   31 2    
    63   30   32 1    
    64   32   33 1    
    65   32   34 1    
    66   32  100 1    
    67   33  101 1    
    68   33  102 1    
    69   33  103 1    
    70   34   35 am   BACKBONE|DICT|INTERRES
    71   34  104 1    
    72   35   36 2    
    73   37   38 2    
    74   37   39 am   BACKBONE|DICT|INTERRES
    75   39   40 1    
    76   39  105 1    
    77   40   41 1    
    78   40   42 1    
    79   40  106 1    
    80   41  107 1    
    81   41  108 1    
    82   41  109 1    
    83   42   43 2    
    84   42   44 am   BACKBONE|DICT|INTERRES
    85   44   45 1    
    86   44  110 1    
    87   45   46 1    
    88   45   47 1    
    89   45  111 1    
    90   46  112 1    
    91   46  113 1    
    92   46  114 1    
    93   47   48 2    
    94   47   49 am   BACKBONE|DICT|INTERRES
    95   49   50 1    
    96   49  115 1    
    97   50   51 1    
    98   50   52 1    
    99   50  116 1    
   100   51  117 1    
   101   51  118 1    
   102   51  119 1    
   103   52   53 2    
   104   52   54 am   BACKBONE|DICT|INTERRES
   105   54   55 1    
   106   54  120 1    
   107   55   56 1    
   108   55   57 1    
   109   55  121 1    
   110   56  122 1    
   111   56  123 1    
   112   56  124 1    
   113   57   58 2    
   114   57   59 am   BACKBONE|DICT|INTERRES
   115   59   60 1    
   116   59  125 1    
   117   60   61 1    
   118   60   62 1    
   119   60  126 1    
   120   61  127 1    
   121   61  128 1    
   122   61  129 1    
   123   62   63 2    
   124   62   64 am   BACKBONE|DICT|INTERRES
   125   64   65 1    
   126   64  130 1    
   127   65   66 1    
   128   65   69 1    
   129   65  131 1    
   130   66   67 am   BACKBONE|DICT|INTERRES
   131   66   68 2    
   132   67  132 1    
   133   67  133 1    
   134   69   70 1    
   135   69  134 1    
   136   69  135 1    
   137   70   71 1    
   138   71  136 1    
   139   71  137 1    
@<TRIPOS>SUBSTRUCTURE
     1 UNK         1 GROUP             0       ****    0 ROOT    
