@<TRIPOS>MOLECULE
3R137
137   139    1
SMALL
USER_CHARGES


@<TRIPOS>ATOM
      1 CA         28.2259   -6.5550   -0.5689 C.3       0 UNK        -0.2020 
      2 C          27.3467   -5.5648    0.1803 C.2       0 UNK         0.4855 
      3 O          26.4160   -5.9735    0.8746 O.2       0 UNK        -0.5197 
      4 N          27.6331   -4.2637    0.0430 N.am      1 UNK        -0.4892 
      5 CA         26.8813   -3.1653    0.6653 C.3       1 UNK         0.0835 
      6 C6         27.7422   -1.8779    0.7695 C.3       12 UNK        -0.0855 
      7 S7         28.2174   -1.1728   -0.8481 S.3       12 UNK        -0.2931 
      8 C8         29.9389   -1.7241   -1.0327 C.3       12 UNK         0.0378 
      9 C9         30.2828   -1.8627   -2.5064 C.ar      12 UNK        -0.0802 
     10 C10        30.8886   -0.8098   -3.1983 C.ar      12 UNK        -0.0944 
     11 C11        31.1802   -0.9338   -4.5605 C.ar      12 UNK        -0.0787 
     12 C12        30.8747   -2.1248   -5.2253 C.ar      12 UNK        -0.0862 
     13 C13        30.2518   -3.1767   -4.5479 C.ar      12 UNK        -0.0733 
     14 C14        29.9668   -3.0421   -3.1868 C.ar      12 UNK        -0.0832 
     15 C15        29.8781   -4.4586   -5.2804 C.3       12 UNK         0.0240 
     16 S16        28.7263   -4.1802   -6.6661 S.3       12 UNK        -0.2522 
     17 C17        27.2834   -3.3986   -5.8616 C.3       12 UNK        -0.0967 
     18 CA         26.8333   -2.1261   -6.6244 C.3       5 UNK         0.0660 
     19 N          25.4048   -1.8545   -6.4599 N.am      5 UNK        -0.4015 
     20 C          24.6438   -1.2398   -7.3781 C.2       4 UNK         0.4946 
     21 O          25.0440   -0.9156   -8.4961 O.2       4 UNK        -0.5353 
     22 CA         23.1886   -0.9180   -6.9915 C.3       4 UNK         0.0277 
     23 CB         22.2526   -2.0568   -7.4275 C.3       4 UNK        -0.1981 
     24 N          23.0076   -0.6617   -5.5613 N.am      4 UNK        -0.4209 
     25 C          23.5373    0.3780   -4.9014 C.2       3 UNK         0.4942 
     26 O          24.1979    1.2657   -5.4393 O.2       3 UNK        -0.5208 
     27 CA         23.3428    0.3990   -3.3750 C.3       3 UNK         0.0250 
     28 CB         22.0426    1.1321   -3.0094 C.3       3 UNK        -0.1990 
     29 N          23.3508   -0.9307   -2.7507 N.am      3 UNK        -0.4232 
     30 C          24.3569   -1.8128   -2.8315 C.2       2 UNK         0.4993 
     31 O          25.3771   -1.6345   -3.5032 O.2       2 UNK        -0.5286 
     32 CA         24.1742   -3.1432   -2.0914 C.3       2 UNK         0.0209 
     33 CB         24.0126   -4.2975   -3.0949 C.3       2 UNK        -0.1931 
     34 N          25.3401   -3.3981   -1.2503 N.am      2 UNK        -0.4546 
     35 C          25.5190   -2.8979   -0.0193 C.2       1 UNK         0.5154 
     36 O          24.6609   -2.2448    0.5779 O.2       1 UNK        -0.5181 
     37 C          27.6561   -0.8802   -6.2471 C.2       5 UNK         0.5014 
     38 O          28.5809   -0.5299   -6.9784 O.2       5 UNK        -0.5248 
     39 N          27.2711   -0.1926   -5.1594 N.am      6 UNK        -0.4434 
     40 CA         27.8867    1.0582   -4.6976 C.3       6 UNK         0.0363 
     41 CB         27.1885    1.5361   -3.4156 C.3       6 UNK        -0.1936 
     42 C          27.8751    2.1802   -5.7520 C.2       6 UNK         0.5081 
     43 O          28.8449    2.9315   -5.8521 O.2       6 UNK        -0.5248 
     44 N          26.7820    2.2635   -6.5207 N.am      7 UNK        -0.4718 
     45 CA         26.5978    3.2115   -7.6193 C.3       7 UNK         0.0273 
     46 CB         25.0887    3.3854   -7.8614 C.3       7 UNK        -0.1935 
     47 C          27.3050    2.8077   -8.9284 C.2       7 UNK         0.5018 
     48 O          27.3478    3.6294   -9.8464 O.2       7 UNK        -0.5186 
     49 N          27.8095    1.5692   -9.0302 N.am      8 UNK        -0.4240 
     50 CA         28.4554    1.0480  -10.2370 C.3       8 UNK         0.0235 
     51 CB         28.3816   -0.4896  -10.2351 C.3       8 UNK        -0.2000 
     52 C          29.9145    1.5152  -10.3552 C.2       8 UNK         0.4941 
     53 O          30.5412    1.8864   -9.3605 O.2       8 UNK        -0.5273 
     54 N          30.4557    1.4114  -11.5761 N.am      9 UNK        -0.4262 
     55 CA         31.8399    1.7489  -11.9348 C.3       9 UNK         0.0264 
     56 CB         31.9274    1.9020  -13.4641 C.3       9 UNK        -0.1955 
     57 C          32.9040    0.7568  -11.4141 C.2       9 UNK         0.5031 
     58 O          34.0788    0.9057  -11.7540 O.2       9 UNK        -0.5390 
     59 N          32.4922   -0.2355  -10.6118 N.am      10 UNK        -0.4204 
     60 CA         33.3532   -1.2175   -9.9482 C.3       10 UNK         0.0237 
     61 CB         32.4702   -2.2742   -9.2632 C.3       10 UNK        -0.1985 
     62 C          34.3290   -0.5924   -8.9339 C.2       10 UNK         0.4970 
     63 O          35.4272   -1.1222   -8.7591 O.2       10 UNK        -0.4914 
     64 N          33.9195    0.5150   -8.3037 N.am      11 UNK        -0.4285 
     65 CA         34.7552    1.3371   -7.4212 C.3       11 UNK         0.1007 
     66 C          35.2538    2.5886   -8.1865 C.2       11 UNK         0.5703 
     67 N          36.5069    2.9777   -7.9949 N.am      11 UNK        -0.7361 
     68 O          34.5053    3.2315   -8.9209 O.2       11 UNK        -0.4986 
     69 C69        33.9945    1.7478   -6.1358 C.3       12 UNK        -0.0947 
     70 S70        33.5837    0.3095   -5.0935 S.3       12 UNK        -0.2240 
     71 C71        31.7845    0.2331   -5.3238 C.3       12 UNK         0.0194 
     72 H72        28.7129   -7.2298    0.1347 H         1 UNK         0.0906 
     73 H73        27.6209   -7.1531   -1.2501 H         1 UNK         0.0906 
     74 H74        29.0008   -6.0576   -1.1516 H         1 UNK         0.0906 
     75 H75        28.4084   -3.9785   -0.5352 H         1 UNK         0.3140 
     76 H76        26.6427   -3.4721    1.6865 H         1 UNK         0.1085 
     77 H77        28.6386   -2.0749    1.3598 H         1 UNK         0.0836 
     78 H78        27.1980   -1.1101    1.3231 H         1 UNK         0.0836 
     79 H79        30.0923   -2.6788   -0.5282 H         1 UNK         0.0731 
     80 H80        30.6026   -1.0081   -0.5454 H         1 UNK         0.0731 
     81 H81        31.1180    0.1126   -2.6825 H         1 UNK         0.1312 
     82 H82        31.0854   -2.2210   -6.2809 H         1 UNK         0.1406 
     83 H83        29.4845   -3.8520   -2.6589 H         1 UNK         0.1631 
     84 H84        29.4325   -5.1840   -4.5980 H         1 UNK         0.0717 
     85 H85        30.7870   -4.9208   -5.6678 H         1 UNK         0.0717 
     86 H86        26.4844   -4.1415   -5.8705 H         1 UNK         0.0934 
     87 H87        27.4777   -3.1887   -4.8080 H         1 UNK         0.0934 
     88 H88        27.0047   -2.3055   -7.6887 H         1 UNK         0.0739 
     89 H89        25.0261   -2.0162   -5.5350 H         1 UNK         0.3093 
     90 H90        22.9012   -0.0124   -7.5306 H         1 UNK         0.0818 
     91 H91        21.2081   -1.8066   -7.2403 H         1 UNK         0.0819 
     92 H92        22.3494   -2.2524   -8.4965 H         1 UNK         0.0819 
     93 H93        22.4755   -2.9879   -6.9049 H         1 UNK         0.0819 
     94 H94        22.4700   -1.3371   -5.0379 H         1 UNK         0.3041 
     95 H95        24.1764    0.9579   -2.9474 H         1 UNK         0.0784 
     96 H96        22.0237    2.1324   -3.4450 H         1 UNK         0.0793 
     97 H97        21.1617    0.6017   -3.3731 H         1 UNK         0.0793 
     98 H98        21.9429    1.2505   -1.9302 H         1 UNK         0.0793 
     99 H99        22.5466   -1.1623   -2.1847 H         1 UNK         0.3024 
    100 H100       23.2795   -3.0980   -1.4659 H         1 UNK         0.1171 
    101 H101       23.8699   -5.2489   -2.5820 H         1 UNK         0.0786 
    102 H102       23.1428   -4.1417   -3.7344 H         1 UNK         0.0786 
    103 H103       24.8829   -4.3965   -3.7451 H         1 UNK         0.0786 
    104 H104       26.1167   -3.8757   -1.6819 H         1 UNK         0.2977 
    105 H105       26.5309   -0.5792   -4.5782 H         1 UNK         0.3127 
    106 H106       28.9257    0.8339   -4.4584 H         1 UNK         0.0770 
    107 H107       26.1903    1.9213   -3.6216 H         1 UNK         0.0814 
    108 H108       27.7545    2.3408   -2.9452 H         1 UNK         0.0814 
    109 H109       27.0924    0.7341   -2.6857 H         1 UNK         0.0814 
    110 H110       25.9968    1.6549   -6.3086 H         1 UNK         0.2983 
    111 H111       27.0086    4.1775   -7.3174 H         1 UNK         0.0947 
    112 H112       24.8964    4.1151   -8.6491 H         1 UNK         0.0806 
    113 H113       24.5811    3.7382   -6.9633 H         1 UNK         0.0806 
    114 H114       24.6205    2.4469   -8.1620 H         1 UNK         0.0806 
    115 H115       27.8336    0.9727   -8.2102 H         1 UNK         0.3000 
    116 H116       27.9041    1.4136  -11.1065 H         1 UNK         0.0850 
    117 H117       28.6977   -0.8998  -11.1948 H         1 UNK         0.0810 
    118 H118       27.3644   -0.8391  -10.0568 H         1 UNK         0.0810 
    119 H119       29.0241   -0.9284   -9.4716 H         1 UNK         0.0810 
    120 H120       29.8764    1.0688  -12.3300 H         1 UNK         0.3040 
    121 H121       32.0743    2.7163  -11.4853 H         1 UNK         0.0766 
    122 H122       31.7187    0.9618  -13.9760 H         1 UNK         0.0812 
    123 H123       32.9228    2.2257  -13.7718 H         1 UNK         0.0812 
    124 H124       31.2231    2.6492  -13.8304 H         1 UNK         0.0812 
    125 H125       31.5101   -0.2683  -10.3835 H         1 UNK         0.3205 
    126 H126       33.9506   -1.7112  -10.7175 H         1 UNK         0.0754 
    127 H127       33.0780   -3.0198   -8.7485 H         1 UNK         0.0769 
    128 H128       31.8525   -2.8060   -9.9873 H         1 UNK         0.0769 
    129 H129       31.8069   -1.8254   -8.5229 H         1 UNK         0.0769 
    130 H130       33.0247    0.9131   -8.5514 H         1 UNK         0.2981 
    131 H131       35.6324    0.7648   -7.1125 H         1 UNK         0.0541 
    132 H132       36.8425    3.7988   -8.4739 H         1 UNK         0.3459 
    133 H133       37.1253    2.4664   -7.3843 H         1 UNK         0.3459 
    134 H134       33.0878    2.3046   -6.3812 H         1 UNK         0.0612 
    135 H135       34.6073    2.4180   -5.5301 H         1 UNK         0.0612 
    136 H136       31.5555    0.1502   -6.3879 H         1 UNK         0.0624 
    137 H137       31.3363    1.1683   -4.9848 H         1 UNK         0.0624 
@<TRIPOS>BOND
     1    1    2 1    
     2    1   72 1    
     3    1   73 1    
     4    1   74 1    
     5    2    3 2    
     6    2    4 am   BACKBONE|DICT|INTERRES
     7    4    5 1    
     8    4   75 1    
     9    5    6 1    
    10    5   35 1    
    11    5   76 1    
    12    6    7 1    
    13    6   77 1    
    14    6   78 1    
    15    7    8 1    
    16    8    9 1    
    17    8   79 1    
    18    8   80 1    
    19    9   10 ar   
    20    9   14 ar   
    21   10   11 ar   
    22   10   81 1    
    23   11   12 ar   
    24   11   71 1    
    25   12   13 ar   
    26   12   82 1    
    27   13   14 ar   
    28   13   15 1    
    29   14   83 1    
    30   15   16 1    
    31   15   84 1    
    32   15   85 1    
    33   16   17 1    
    34   17   18 1    
    35   17   86 1    
    36   17   87 1    
    37   18   19 1    
    38   18   37 1    
    39   18   88 1    
    40   19   20 am   BACKBONE|DICT|INTERRES
    41   19   89 1    
    42   20   21 2    
    43   20   22 1    
    44   22   23 1    
    45   22   24 1    
    46   22   90 1    
    47   23   91 1    
    48   23   92 1    
    49   23   93 1    
    50   24   25 am   BACKBONE|DICT|INTERRES
    51   24   94 1    
    52   25   26 2    
    53   25   27 1    
    54   27   28 1    
    55   27   29 1    
    56   27   95 1    
    57   28   96 1    
    58   28   97 1    
    59   28   98 1    
    60   29   30 am   BACKBONE|DICT|INTERRES
    61   29   99 1    
    62   30   31 2    
    63   30   32 1    
    64   32   33 1    
    65   32   34 1    
    66   32  100 1    
    67   33  101 1    
    68   33  102 1    
    69   33  103 1    
    70   34   35 am   BACKBONE|DICT|INTERRES
    71   34  104 1    
    72   35   36 2    
    73   37   38 2    
    74   37   39 am   BACKBONE|DICT|INTERRES
    75   39   40 1    
    76   39  105 1    
    77   40   41 1    
    78   40   42 1    
    79   40  106 1    
    80   41  107 1    
    81   41  108 1    
    82   41  109 1    
    83   42   43 2    
    84   42   44 am   BACKBONE|DICT|INTERRES
    85   44   45 1    
    86   44  110 1    
    87   45   46 1    
    88   45   47 1    
    89   45  111 1    
    90   46  112 1    
    91   46  113 1    
    92   46  114 1    
    93   47   48 2    
    94   47   49 am   BACKBONE|DICT|INTERRES
    95   49   50 1    
    96   49  115 1    
    97   50   51 1    
    98   50   52 1    
    99   50  116 1    
   100   51  117 1    
   101   51  118 1    
   102   51  119 1    
   103   52   53 2    
   104   52   54 am   BACKBONE|DICT|INTERRES
   105   54   55 1    
   106   54  120 1    
   107   55   56 1    
   108   55   57 1    
   109   55  121 1    
   110   56  122 1    
   111   56  123 1    
   112   56  124 1    
   113   57   58 2    
   114   57   59 am   BACKBONE|DICT|INTERRES
   115   59   60 1    
   116   59  125 1    
   117   60   61 1    
   118   60   62 1    
   119   60  126 1    
   120   61  127 1    
   121   61  128 1    
   122   61  129 1    
   123   62   63 2    
   124   62   64 am   BACKBONE|DICT|INTERRES
   125   64   65 1    
   126   64  130 1    
   127   65   66 1    
   128   65   69 1    
   129   65  131 1    
   130   66   67 am   BACKBONE|DICT|INTERRES
   131   66   68 2    
   132   67  132 1    
   133   67  133 1    
   134   69   70 1    
   135   69  134 1    
   136   69  135 1    
   137   70   71 1    
   138   71  136 1    
   139   71  137 1    
@<TRIPOS>SUBSTRUCTURE
     1 UNK         1 GROUP             0       ****    0 ROOT    
