@<TRIPOS>MOLECULE
3R137
137   139    1
SMALL
USER_CHARGES


@<TRIPOS>ATOM
      1 CA         24.3471   -2.2733    0.6061 C.3       0 UNK        -0.2020 
      2 C          25.7765   -2.0311    0.1471 C.2       0 UNK         0.4855 
      3 O          26.2308   -0.8867    0.1311 O.2       0 UNK        -0.5197 
      4 N          26.4925   -3.0947   -0.2406 N.am      1 UNK        -0.4892 
      5 CA         27.8445   -3.0190   -0.8042 C.3       1 UNK         0.0835 
      6 C6         28.4968   -4.4194   -0.8933 C.3       12 UNK        -0.0855 
      7 S7         30.3195   -4.3350   -0.9241 S.3       12 UNK        -0.2931 
      8 C8         30.7222   -5.2727   -2.4326 C.3       12 UNK         0.0378 
      9 C9         30.4270   -4.4755   -3.6941 C.ar      12 UNK        -0.0802 
     10 C10        31.3439   -3.5284   -4.1535 C.ar      12 UNK        -0.0944 
     11 C11        31.0855   -2.7879   -5.3127 C.ar      12 UNK        -0.0787 
     12 C12        29.9034   -3.0246   -6.0238 C.ar      12 UNK        -0.0862 
     13 C13        28.9717   -3.9724   -5.5766 C.ar      12 UNK        -0.0733 
     14 C14        29.2485   -4.6924   -4.4109 C.ar      12 UNK        -0.0832 
     15 C15        27.6523   -4.2689   -6.2924 C.3       12 UNK         0.0240 
     16 S16        27.4349   -3.5413   -7.9533 S.3       12 UNK        -0.2522 
     17 C17        26.9161   -1.8326   -7.5872 C.3       12 UNK        -0.0967 
     18 CA         25.3841   -1.7277   -7.3592 C.3       5 UNK         0.0660 
     19 N          25.0201   -1.9957   -5.9645 N.am      5 UNK        -0.4015 
     20 C          23.7926   -2.3344   -5.5430 C.2       4 UNK         0.4946 
     21 O          22.8576   -2.6102   -6.2955 O.2       4 UNK        -0.5353 
     22 CA         23.5590   -2.3266   -4.0219 C.3       4 UNK         0.0277 
     23 CB         23.8795   -3.6991   -3.4073 C.3       4 UNK        -0.1981 
     24 N          24.3454   -1.2778   -3.3627 N.am      4 UNK        -0.4209 
     25 C          24.0239    0.0265   -3.4095 C.2       3 UNK         0.4942 
     26 O          22.9781    0.4484   -3.9024 O.2       3 UNK        -0.5208 
     27 CA         25.0315    1.0480   -2.8497 C.3       3 UNK         0.0250 
     28 CB         24.5627    1.5825   -1.4870 C.3       3 UNK        -0.1990 
     29 N          26.3976    0.5294   -2.7397 N.am      3 UNK        -0.4232 
     30 C          27.1968    0.2801   -3.7892 C.2       2 UNK         0.4993 
     31 O          26.8634    0.4783   -4.9574 O.2       2 UNK        -0.5286 
     32 CA         28.5696   -0.3558   -3.5032 C.3       2 UNK         0.0209 
     33 CB         29.6408    0.7345   -3.3522 C.3       2 UNK        -0.1931 
     34 N          28.5837   -1.2281   -2.3232 N.am      2 UNK        -0.4546 
     35 C          27.7940   -2.2997   -2.1673 C.2       1 UNK         0.5154 
     36 O          26.9880   -2.6787   -3.0212 O.2       1 UNK        -0.5181 
     37 C          24.8405   -0.3561   -7.8111 C.2       5 UNK         0.5014 
     38 O          24.4620   -0.2143   -8.9744 O.2       5 UNK        -0.5248 
     39 N          24.8286    0.6286   -6.8985 N.am      6 UNK        -0.4434 
     40 CA         24.3257    2.0068   -7.0112 C.3       6 UNK         0.0363 
     41 CB         22.8419    2.0477   -7.4233 C.3       6 UNK        -0.1936 
     42 C          25.1876    2.9127   -7.9055 C.2       6 UNK         0.5081 
     43 O          25.4430    4.0592   -7.5383 O.2       6 UNK        -0.5248 
     44 N          25.6636    2.3735   -9.0331 N.am      7 UNK        -0.4718 
     45 CA         26.6426    2.9959   -9.9270 C.3       7 UNK         0.0273 
     46 CB         26.5830    2.2870  -11.2906 C.3       7 UNK        -0.1935 
     47 C          28.0795    2.9657   -9.3693 C.2       7 UNK         0.5018 
     48 O          28.9430    3.6458   -9.9242 O.2       7 UNK        -0.5186 
     49 N          28.3099    2.1703   -8.3094 N.am      8 UNK        -0.4240 
     50 CA         29.5910    1.9284   -7.6322 C.3       8 UNK         0.0235 
     51 CB         30.0736    3.2030   -6.9068 C.3       8 UNK        -0.2000 
     52 C          30.6540    1.3310   -8.5754 C.2       8 UNK         0.4941 
     53 O          31.8168    1.7410   -8.5394 O.2       8 UNK        -0.5273 
     54 N          30.2293    0.3728   -9.4120 N.am      9 UNK        -0.4262 
     55 CA         31.0513   -0.3271  -10.4011 C.3       9 UNK         0.0264 
     56 CB         30.1670   -1.3175  -11.1784 C.3       9 UNK        -0.1955 
     57 C          32.2442   -1.0439   -9.7467 C.2       9 UNK         0.5031 
     58 O          32.0323   -1.9989   -9.0003 O.2       9 UNK        -0.5390 
     59 N          33.4552   -0.5387  -10.0208 N.am      10 UNK        -0.4204 
     60 CA         34.7519   -0.9341   -9.4508 C.3       10 UNK         0.0237 
     61 CB         35.0394   -2.4381   -9.6550 C.3       10 UNK        -0.1985 
     62 C          34.9809   -0.4816   -7.9915 C.2       10 UNK         0.4970 
     63 O          35.9786   -0.8936   -7.3972 O.2       10 UNK        -0.4914 
     64 N          34.1060    0.3787   -7.4549 N.am      11 UNK        -0.4285 
     65 CA         34.2699    1.0624   -6.1614 C.3       11 UNK         0.1007 
     66 C          34.5205    2.5825   -6.3512 C.2       11 UNK         0.5703 
     67 N          33.9272    3.2294   -7.3478 N.am      11 UNK        -0.7361 
     68 O          35.2767    3.1811   -5.5899 O.2       11 UNK        -0.4986 
     69 C69        33.0564    0.8291   -5.2247 C.3       12 UNK        -0.0947 
     70 S70        32.9966   -0.8594   -4.5466 S.3       12 UNK        -0.2240 
     71 C71        32.0773   -1.7551   -5.8425 C.3       12 UNK         0.0194 
     72 H72        23.6500   -1.7651   -0.0598 H         1 UNK         0.0906 
     73 H73        24.0956   -3.3337    0.6160 H         1 UNK         0.0906 
     74 H74        24.2050   -1.8814    1.6128 H         1 UNK         0.0906 
     75 H75        26.0668   -4.0107   -0.2365 H         1 UNK         0.3140 
     76 H76        28.4346   -2.4126   -0.1129 H         1 UNK         0.1085 
     77 H77        28.1110   -4.9852   -1.7425 H         1 UNK         0.0836 
     78 H78        28.2351   -5.0054   -0.0105 H         1 UNK         0.0836 
     79 H79        30.1802   -6.2199   -2.4339 H         1 UNK         0.0731 
     80 H80        31.7816   -5.5329   -2.4098 H         1 UNK         0.0731 
     81 H81        32.2595   -3.3718   -3.6007 H         1 UNK         0.1312 
     82 H82        29.7236   -2.4654   -6.9306 H         1 UNK         0.1406 
     83 H83        28.5363   -5.4260   -4.0585 H         1 UNK         0.1631 
     84 H84        26.8259   -3.9688   -5.6488 H         1 UNK         0.0717 
     85 H85        27.5639   -5.3502   -6.4072 H         1 UNK         0.0717 
     86 H86        27.4789   -1.4391   -6.7396 H         1 UNK         0.0934 
     87 H87        27.2262   -1.2397   -8.4501 H         1 UNK         0.0934 
     88 H88        24.8860   -2.4694   -7.9881 H         1 UNK         0.0739 
     89 H89        25.7268   -1.8043   -5.2688 H         1 UNK         0.3093 
     90 H90        22.4999   -2.1234   -3.8479 H         1 UNK         0.0818 
     91 H91        23.7577   -3.6899   -2.3243 H         1 UNK         0.0819 
     92 H92        23.2083   -4.4627   -3.8023 H         1 UNK         0.0819 
     93 H93        24.8962   -4.0225   -3.6297 H         1 UNK         0.0819 
     94 H94        25.2369   -1.5601   -2.9696 H         1 UNK         0.3041 
     95 H95        25.0545    1.8901   -3.5449 H         1 UNK         0.0784 
     96 H96        23.5976    2.0825   -1.5791 H         1 UNK         0.0793 
     97 H97        24.4410    0.7841   -0.7556 H         1 UNK         0.0793 
     98 H98        25.2653    2.3096   -1.0795 H         1 UNK         0.0793 
     99 H99        26.7200    0.2921   -1.8090 H         1 UNK         0.3024 
    100 H100       28.8252   -0.9733   -4.3660 H         1 UNK         0.1171 
    101 H101       30.6279    0.3009   -3.1966 H         1 UNK         0.0786 
    102 H102       29.6976    1.3539   -4.2484 H         1 UNK         0.0786 
    103 H103       29.4299    1.3955   -2.5106 H         1 UNK         0.0786 
    104 H104       29.2147   -0.9721   -1.5774 H         1 UNK         0.2977 
    105 H105       25.3243    0.4446   -6.0292 H         1 UNK         0.3127 
    106 H106       24.3910    2.4181   -6.0026 H         1 UNK         0.0770 
    107 H107       22.6860    1.6805   -8.4379 H         1 UNK         0.0814 
    108 H108       22.4583    3.0680   -7.3870 H         1 UNK         0.0814 
    109 H109       22.2303    1.4468   -6.7498 H         1 UNK         0.0814 
    110 H110       25.3485    1.4339   -9.2634 H         1 UNK         0.2983 
    111 H111       26.3696    4.0441  -10.0680 H         1 UNK         0.0947 
    112 H112       26.8436    1.2309  -11.2092 H         1 UNK         0.0806 
    113 H113       27.2774    2.7409  -11.9992 H         1 UNK         0.0806 
    114 H114       25.5870    2.3539  -11.7288 H         1 UNK         0.0806 
    115 H115       27.5126    1.6826   -7.9272 H         1 UNK         0.3000 
    116 H116       29.4004    1.1699   -6.8709 H         1 UNK         0.0850 
    117 H117       29.3081    3.5877   -6.2330 H         1 UNK         0.0810 
    118 H118       30.3305    3.9959   -7.6099 H         1 UNK         0.0810 
    119 H119       30.9617    3.0075   -6.3064 H         1 UNK         0.0810 
    120 H120       29.2605    0.0982   -9.3668 H         1 UNK         0.3040 
    121 H121       31.4250    0.4183  -11.1062 H         1 UNK         0.0766 
    122 H122       30.7504   -1.8560  -11.9264 H         1 UNK         0.0812 
    123 H123       29.3616   -0.8047  -11.7046 H         1 UNK         0.0812 
    124 H124       29.7177   -2.0621  -10.5192 H         1 UNK         0.0812 
    125 H125       33.4924    0.2653  -10.6335 H         1 UNK         0.3205 
    126 H126       35.4951   -0.3897  -10.0352 H         1 UNK         0.0754 
    127 H127       36.0772   -2.6735   -9.4158 H         1 UNK         0.0769 
    128 H128       34.8713   -2.7391  -10.6890 H         1 UNK         0.0769 
    129 H129       34.4145   -3.0626   -9.0160 H         1 UNK         0.0769 
    130 H130       33.3220    0.7001   -8.0139 H         1 UNK         0.2981 
    131 H131       35.1549    0.6785   -5.6506 H         1 UNK         0.0541 
    132 H132       34.1033    4.2133   -7.4705 H         1 UNK         0.3459 
    133 H133       33.2339    2.7624   -7.9258 H         1 UNK         0.3459 
    134 H134       33.1028    1.4994   -4.3641 H         1 UNK         0.0612 
    135 H135       32.1178    1.0579   -5.7290 H         1 UNK         0.0612 
    136 H136       31.5522   -1.0368   -6.4729 H         1 UNK         0.0624 
    137 H137       32.7991   -2.2625   -6.4827 H         1 UNK         0.0624 
@<TRIPOS>BOND
     1    1    2 1    
     2    1   72 1    
     3    1   73 1    
     4    1   74 1    
     5    2    3 2    
     6    2    4 am   BACKBONE|DICT|INTERRES
     7    4    5 1    
     8    4   75 1    
     9    5    6 1    
    10    5   35 1    
    11    5   76 1    
    12    6    7 1    
    13    6   77 1    
    14    6   78 1    
    15    7    8 1    
    16    8    9 1    
    17    8   79 1    
    18    8   80 1    
    19    9   10 ar   
    20    9   14 ar   
    21   10   11 ar   
    22   10   81 1    
    23   11   12 ar   
    24   11   71 1    
    25   12   13 ar   
    26   12   82 1    
    27   13   14 ar   
    28   13   15 1    
    29   14   83 1    
    30   15   16 1    
    31   15   84 1    
    32   15   85 1    
    33   16   17 1    
    34   17   18 1    
    35   17   86 1    
    36   17   87 1    
    37   18   19 1    
    38   18   37 1    
    39   18   88 1    
    40   19   20 am   BACKBONE|DICT|INTERRES
    41   19   89 1    
    42   20   21 2    
    43   20   22 1    
    44   22   23 1    
    45   22   24 1    
    46   22   90 1    
    47   23   91 1    
    48   23   92 1    
    49   23   93 1    
    50   24   25 am   BACKBONE|DICT|INTERRES
    51   24   94 1    
    52   25   26 2    
    53   25   27 1    
    54   27   28 1    
    55   27   29 1    
    56   27   95 1    
    57   28   96 1    
    58   28   97 1    
    59   28   98 1    
    60   29   30 am   BACKBONE|DICT|INTERRES
    61   29   99 1    
    62   30   31 2    
    63   30   32 1    
    64   32   33 1    
    65   32   34 1    
    66   32  100 1    
    67   33  101 1    
    68   33  102 1    
    69   33  103 1    
    70   34   35 am   BACKBONE|DICT|INTERRES
    71   34  104 1    
    72   35   36 2    
    73   37   38 2    
    74   37   39 am   BACKBONE|DICT|INTERRES
    75   39   40 1    
    76   39  105 1    
    77   40   41 1    
    78   40   42 1    
    79   40  106 1    
    80   41  107 1    
    81   41  108 1    
    82   41  109 1    
    83   42   43 2    
    84   42   44 am   BACKBONE|DICT|INTERRES
    85   44   45 1    
    86   44  110 1    
    87   45   46 1    
    88   45   47 1    
    89   45  111 1    
    90   46  112 1    
    91   46  113 1    
    92   46  114 1    
    93   47   48 2    
    94   47   49 am   BACKBONE|DICT|INTERRES
    95   49   50 1    
    96   49  115 1    
    97   50   51 1    
    98   50   52 1    
    99   50  116 1    
   100   51  117 1    
   101   51  118 1    
   102   51  119 1    
   103   52   53 2    
   104   52   54 am   BACKBONE|DICT|INTERRES
   105   54   55 1    
   106   54  120 1    
   107   55   56 1    
   108   55   57 1    
   109   55  121 1    
   110   56  122 1    
   111   56  123 1    
   112   56  124 1    
   113   57   58 2    
   114   57   59 am   BACKBONE|DICT|INTERRES
   115   59   60 1    
   116   59  125 1    
   117   60   61 1    
   118   60   62 1    
   119   60  126 1    
   120   61  127 1    
   121   61  128 1    
   122   61  129 1    
   123   62   63 2    
   124   62   64 am   BACKBONE|DICT|INTERRES
   125   64   65 1    
   126   64  130 1    
   127   65   66 1    
   128   65   69 1    
   129   65  131 1    
   130   66   67 am   BACKBONE|DICT|INTERRES
   131   66   68 2    
   132   67  132 1    
   133   67  133 1    
   134   69   70 1    
   135   69  134 1    
   136   69  135 1    
   137   70   71 1    
   138   71  136 1    
   139   71  137 1    
@<TRIPOS>SUBSTRUCTURE
     1 UNK         1 GROUP             0       ****    0 ROOT    
