@<TRIPOS>MOLECULE
3R137
137   139    1
SMALL
USER_CHARGES


@<TRIPOS>ATOM
      1 CA         21.8684    0.5881   -6.5101 C.3       0 UNK        -0.2020 
      2 C          22.0151   -0.8989   -6.2251 C.2       0 UNK         0.4855 
      3 O          21.0124   -1.5831   -6.0165 O.2       0 UNK        -0.5197 
      4 N          23.2555   -1.4028   -6.2174 N.am      1 UNK        -0.4892 
      5 CA         23.5927   -2.7777   -5.8398 C.3       1 UNK         0.0835 
      6 C6         24.8191   -3.2968   -6.6371 C.3       12 UNK        -0.0855 
      7 S7         26.4122   -2.4851   -6.2514 S.3       12 UNK        -0.2931 
      8 C8         27.4285   -3.9481   -5.8638 C.3       12 UNK         0.0378 
      9 C9         28.8342   -3.5677   -5.4249 C.ar      12 UNK        -0.0802 
     10 C10        29.8205   -3.2737   -6.3718 C.ar      12 UNK        -0.0944 
     11 C11        31.1228   -2.9445   -5.9792 C.ar      12 UNK        -0.0787 
     12 C12        31.4305   -2.9306   -4.6125 C.ar      12 UNK        -0.0862 
     13 C13        30.4468   -3.1889   -3.6554 C.ar      12 UNK        -0.0733 
     14 C14        29.1542   -3.5205   -4.0666 C.ar      12 UNK        -0.0832 
     15 C15        30.7684   -3.0487   -2.1761 C.3       12 UNK         0.0240 
     16 S16        30.0047   -1.5534   -1.4666 S.3       12 UNK        -0.2522 
     17 C17        30.6287   -0.2224   -2.5579 C.3       12 UNK        -0.0967 
     18 CA         29.6203    0.1803   -3.6726 C.3       5 UNK         0.0660 
     19 N          28.2993    0.5157   -3.1093 N.am      5 UNK        -0.4015 
     20 C          27.1286    0.6513   -3.7493 C.2       4 UNK         0.4946 
     21 O          27.0066    0.6144   -4.9768 O.2       4 UNK        -0.5353 
     22 CA         25.8902    0.8784   -2.8646 C.3       4 UNK         0.0277 
     23 CB         24.6467    1.2672   -3.6855 C.3       4 UNK        -0.1981 
     24 N          25.5926   -0.3109   -2.0597 N.am      4 UNK        -0.4209 
     25 C          26.2148   -0.6146   -0.9101 C.2       3 UNK         0.4942 
     26 O          27.0971    0.0977   -0.4263 O.2       3 UNK        -0.5208 
     27 CA         25.8011   -1.8895   -0.1499 C.3       3 UNK         0.0250 
     28 CB         25.1686   -1.5237    1.2048 C.3       3 UNK        -0.1990 
     29 N          24.8618   -2.7362   -0.8872 N.am      3 UNK        -0.4232 
     30 C          25.2045   -3.7388   -1.7068 C.2       2 UNK         0.4993 
     31 O          26.3663   -4.0755   -1.9322 O.2       2 UNK        -0.5286 
     32 CA         24.0588   -4.5047   -2.4001 C.3       2 UNK         0.0209 
     33 CB         22.6972   -4.3839   -1.6761 C.3       2 UNK        -0.1931 
     34 N          23.9188   -4.1374   -3.8158 N.am      2 UNK        -0.4546 
     35 C          23.7413   -2.9007   -4.3054 C.2       1 UNK         0.5154 
     36 O          23.6831   -1.8931   -3.5933 O.2       1 UNK        -0.5181 
     37 C          30.2099    1.2433   -4.6380 C.2       5 UNK         0.5014 
     38 O          31.4056    1.5384   -4.5913 O.2       5 UNK        -0.5248 
     39 N          29.3603    1.7957   -5.5018 N.am      6 UNK        -0.4434 
     40 CA         29.6586    2.7544   -6.5598 C.3       6 UNK         0.0363 
     41 CB         29.6768    4.1795   -5.9784 C.3       6 UNK        -0.1936 
     42 C          28.6600    2.6443   -7.7292 C.2       6 UNK         0.5081 
     43 O          28.9055    3.2539   -8.7706 O.2       6 UNK        -0.5248 
     44 N          27.5420    1.9184   -7.5500 N.am      7 UNK        -0.4718 
     45 CA         26.4529    1.8273   -8.5222 C.3       7 UNK         0.0273 
     46 CB         25.1744    1.3638   -7.8064 C.3       7 UNK        -0.1935 
     47 C          26.7831    0.9124   -9.7101 C.2       7 UNK         0.5018 
     48 O          26.6941    1.3570  -10.8552 O.2       7 UNK        -0.5186 
     49 N          27.1369   -0.3494   -9.4237 N.am      8 UNK        -0.4240 
     50 CA         27.4438   -1.3571  -10.4467 C.3       8 UNK         0.0235 
     51 CB         27.3335   -2.7648   -9.8418 C.3       8 UNK        -0.2000 
     52 C          28.8207   -1.1501  -11.0987 C.2       8 UNK         0.4941 
     53 O          28.9805   -1.4450  -12.2838 O.2       8 UNK        -0.5273 
     54 N          29.7774   -0.6366  -10.3209 N.am      9 UNK        -0.4262 
     55 CA         31.1233   -0.2563  -10.7293 C.3       9 UNK         0.0264 
     56 CB         32.0134   -1.5013  -10.9032 C.3       9 UNK        -0.1955 
     57 C          31.6726    0.6711   -9.6432 C.2       9 UNK         0.5031 
     58 O          31.2130    0.6027   -8.5002 O.2       9 UNK        -0.5390 
     59 N          32.6522    1.5078   -9.9995 N.am      10 UNK        -0.4204 
     60 CA         33.2808    2.4851   -9.1076 C.3       10 UNK         0.0237 
     61 CB         33.8939    3.6130   -9.9598 C.3       10 UNK        -0.1985 
     62 C          34.3049    1.8347   -8.1553 C.2       10 UNK         0.4970 
     63 O          35.4947    2.1483   -8.2298 O.2       10 UNK        -0.4914 
     64 N          33.8297    0.9323   -7.2886 N.am      11 UNK        -0.4285 
     65 CA         34.6178    0.3080   -6.2158 C.3       11 UNK         0.1007 
     66 C          35.0825    1.3370   -5.1482 C.2       11 UNK         0.5703 
     67 N          34.1795    2.1232   -4.5763 N.am      11 UNK        -0.7361 
     68 O          36.2693    1.4238   -4.8410 O.2       11 UNK        -0.4986 
     69 C69        33.8625   -0.8738   -5.5571 C.3       12 UNK        -0.0947 
     70 S70        33.8790   -2.3924   -6.5699 S.3       12 UNK        -0.2240 
     71 C71        32.1314   -2.5783   -7.0722 C.3       12 UNK         0.0194 
     72 H72        22.7491    1.1458   -6.1955 H         1 UNK         0.0906 
     73 H73        21.7128    0.7550   -7.5759 H         1 UNK         0.0906 
     74 H74        21.0115    0.9941   -5.9725 H         1 UNK         0.0906 
     75 H75        24.0506   -0.7939   -6.3421 H         1 UNK         0.3140 
     76 H76        22.7498   -3.4182   -6.1105 H         1 UNK         0.1085 
     77 H77        24.6320   -3.1672   -7.7041 H         1 UNK         0.0836 
     78 H78        24.9160   -4.3751   -6.5017 H         1 UNK         0.0836 
     79 H79        27.4812   -4.5950   -6.7436 H         1 UNK         0.0731 
     80 H80        26.9373   -4.5300   -5.0789 H         1 UNK         0.0731 
     81 H81        29.5730   -3.2964   -7.4229 H         1 UNK         0.1312 
     82 H82        32.4246   -2.6861   -4.2724 H         1 UNK         0.1406 
     83 H83        28.3937   -3.7169   -3.3247 H         1 UNK         0.1631 
     84 H84        31.8464   -3.0135   -2.0109 H         1 UNK         0.0717 
     85 H85        30.4022   -3.9246   -1.6385 H         1 UNK         0.0717 
     86 H86        30.8589    0.6425   -1.9329 H         1 UNK         0.0934 
     87 H87        31.5812   -0.5374   -2.9873 H         1 UNK         0.0934 
     88 H88        29.4587   -0.6954   -4.3019 H         1 UNK         0.0739 
     89 H89        28.2584    0.5261   -2.0954 H         1 UNK         0.3093 
     90 H90        26.1115    1.7157   -2.1987 H         1 UNK         0.0818 
     91 H91        23.7791    1.4282   -3.0452 H         1 UNK         0.0819 
     92 H92        24.3895    0.4968   -4.4110 H         1 UNK         0.0819 
     93 H93        24.8193    2.1901   -4.2406 H         1 UNK         0.0819 
     94 H94        24.9063   -0.9550   -2.4474 H         1 UNK         0.3041 
     95 H95        26.7165   -2.4530    0.0466 H         1 UNK         0.0784 
     96 H96        25.8537   -0.9279    1.8100 H         1 UNK         0.0793 
     97 H97        24.2540   -0.9418    1.0804 H         1 UNK         0.0793 
     98 H98        24.9244   -2.4157    1.7823 H         1 UNK         0.0793 
     99 H99        23.8811   -2.5089   -0.7999 H         1 UNK         0.3024 
    100 H100       24.3480   -5.5571   -2.3756 H         1 UNK         0.1171 
    101 H101       21.9607   -5.0535   -2.1210 H         1 UNK         0.0786 
    102 H102       22.7835   -4.6619   -0.6246 H         1 UNK         0.0786 
    103 H103       22.2866   -3.3745   -1.7213 H         1 UNK         0.0786 
    104 H104       23.9824   -4.9062   -4.4683 H         1 UNK         0.2977 
    105 H105       28.4005    1.4604   -5.4379 H         1 UNK         0.3127 
    106 H106       30.6494    2.5362   -6.9580 H         1 UNK         0.0770 
    107 H107       28.7126    4.4477   -5.5452 H         1 UNK         0.0814 
    108 H108       29.9059    4.9144   -6.7511 H         1 UNK         0.0814 
    109 H109       30.4348    4.2817   -5.2016 H         1 UNK         0.0814 
    110 H110       27.3822    1.4273   -6.6770 H         1 UNK         0.2983 
    111 H111       26.2658    2.8272   -8.9210 H         1 UNK         0.0947 
    112 H112       24.3437    1.2687   -8.5073 H         1 UNK         0.0806 
    113 H113       24.8749    2.0798   -7.0409 H         1 UNK         0.0806 
    114 H114       25.3122    0.3971   -7.3223 H         1 UNK         0.0806 
    115 H115       27.1789   -0.6397   -8.4565 H         1 UNK         0.3000 
    116 H116       26.6963   -1.2777  -11.2394 H         1 UNK         0.0850 
    117 H117       27.5687   -3.5294  -10.5837 H         1 UNK         0.0810 
    118 H118       26.3237   -2.9630   -9.4842 H         1 UNK         0.0810 
    119 H119       28.0176   -2.8994   -9.0059 H         1 UNK         0.0810 
    120 H120       29.5652   -0.3852   -9.3622 H         1 UNK         0.3040 
    121 H121       31.0661    0.2966  -11.6692 H         1 UNK         0.0766 
    122 H122       33.0335   -1.2221  -11.1694 H         1 UNK         0.0812 
    123 H123       31.6409   -2.1499  -11.6962 H         1 UNK         0.0812 
    124 H124       32.0648   -2.0911   -9.9885 H         1 UNK         0.0812 
    125 H125       33.0038    1.4720  -10.9458 H         1 UNK         0.3205 
    126 H126       32.5069    2.9363   -8.4830 H         1 UNK         0.0754 
    127 H127       34.6725    3.2406  -10.6270 H         1 UNK         0.0769 
    128 H128       34.3443    4.3796   -9.3277 H         1 UNK         0.0769 
    129 H129       33.1359    4.1053  -10.5695 H         1 UNK         0.0769 
    130 H130       32.8393    0.7145   -7.3214 H         1 UNK         0.2981 
    131 H131       35.5256   -0.0912   -6.6730 H         1 UNK         0.0541 
    132 H132       33.1853    1.9862   -4.7490 H         1 UNK         0.3459 
    133 H133       34.4776    2.7947   -3.8879 H         1 UNK         0.3459 
    134 H134       32.8363   -0.5852   -5.3280 H         1 UNK         0.0612 
    135 H135       34.3213   -1.1404   -4.6030 H         1 UNK         0.0612 
    136 H136       31.8082   -1.6526   -7.5423 H         1 UNK         0.0624 
    137 H137       32.0956   -3.3465   -7.8457 H         1 UNK         0.0624 
@<TRIPOS>BOND
     1    1    2 1    
     2    1   72 1    
     3    1   73 1    
     4    1   74 1    
     5    2    3 2    
     6    2    4 am   BACKBONE|DICT|INTERRES
     7    4    5 1    
     8    4   75 1    
     9    5    6 1    
    10    5   35 1    
    11    5   76 1    
    12    6    7 1    
    13    6   77 1    
    14    6   78 1    
    15    7    8 1    
    16    8    9 1    
    17    8   79 1    
    18    8   80 1    
    19    9   10 ar   
    20    9   14 ar   
    21   10   11 ar   
    22   10   81 1    
    23   11   12 ar   
    24   11   71 1    
    25   12   13 ar   
    26   12   82 1    
    27   13   14 ar   
    28   13   15 1    
    29   14   83 1    
    30   15   16 1    
    31   15   84 1    
    32   15   85 1    
    33   16   17 1    
    34   17   18 1    
    35   17   86 1    
    36   17   87 1    
    37   18   19 1    
    38   18   37 1    
    39   18   88 1    
    40   19   20 am   BACKBONE|DICT|INTERRES
    41   19   89 1    
    42   20   21 2    
    43   20   22 1    
    44   22   23 1    
    45   22   24 1    
    46   22   90 1    
    47   23   91 1    
    48   23   92 1    
    49   23   93 1    
    50   24   25 am   BACKBONE|DICT|INTERRES
    51   24   94 1    
    52   25   26 2    
    53   25   27 1    
    54   27   28 1    
    55   27   29 1    
    56   27   95 1    
    57   28   96 1    
    58   28   97 1    
    59   28   98 1    
    60   29   30 am   BACKBONE|DICT|INTERRES
    61   29   99 1    
    62   30   31 2    
    63   30   32 1    
    64   32   33 1    
    65   32   34 1    
    66   32  100 1    
    67   33  101 1    
    68   33  102 1    
    69   33  103 1    
    70   34   35 am   BACKBONE|DICT|INTERRES
    71   34  104 1    
    72   35   36 2    
    73   37   38 2    
    74   37   39 am   BACKBONE|DICT|INTERRES
    75   39   40 1    
    76   39  105 1    
    77   40   41 1    
    78   40   42 1    
    79   40  106 1    
    80   41  107 1    
    81   41  108 1    
    82   41  109 1    
    83   42   43 2    
    84   42   44 am   BACKBONE|DICT|INTERRES
    85   44   45 1    
    86   44  110 1    
    87   45   46 1    
    88   45   47 1    
    89   45  111 1    
    90   46  112 1    
    91   46  113 1    
    92   46  114 1    
    93   47   48 2    
    94   47   49 am   BACKBONE|DICT|INTERRES
    95   49   50 1    
    96   49  115 1    
    97   50   51 1    
    98   50   52 1    
    99   50  116 1    
   100   51  117 1    
   101   51  118 1    
   102   51  119 1    
   103   52   53 2    
   104   52   54 am   BACKBONE|DICT|INTERRES
   105   54   55 1    
   106   54  120 1    
   107   55   56 1    
   108   55   57 1    
   109   55  121 1    
   110   56  122 1    
   111   56  123 1    
   112   56  124 1    
   113   57   58 2    
   114   57   59 am   BACKBONE|DICT|INTERRES
   115   59   60 1    
   116   59  125 1    
   117   60   61 1    
   118   60   62 1    
   119   60  126 1    
   120   61  127 1    
   121   61  128 1    
   122   61  129 1    
   123   62   63 2    
   124   62   64 am   BACKBONE|DICT|INTERRES
   125   64   65 1    
   126   64  130 1    
   127   65   66 1    
   128   65   69 1    
   129   65  131 1    
   130   66   67 am   BACKBONE|DICT|INTERRES
   131   66   68 2    
   132   67  132 1    
   133   67  133 1    
   134   69   70 1    
   135   69  134 1    
   136   69  135 1    
   137   70   71 1    
   138   71  136 1    
   139   71  137 1    
@<TRIPOS>SUBSTRUCTURE
     1 UNK         1 GROUP             0       ****    0 ROOT    
