@<TRIPOS>MOLECULE
3R137
137   139    1
SMALL
USER_CHARGES


@<TRIPOS>ATOM
      1 CA         25.0042   -5.3362    1.2896 C.3       0 UNK        -0.2020 
      2 C          25.5053   -5.8068   -0.0733 C.2       0 UNK         0.4855 
      3 O          24.9907   -6.7925   -0.5972 O.2       0 UNK        -0.5197 
      4 N          26.4998   -5.1501   -0.6882 N.am      1 UNK        -0.4892 
      5 CA         27.2071   -3.9481   -0.2140 C.3       1 UNK         0.0835 
      6 C6         28.5548   -3.7503   -0.9496 C.3       12 UNK        -0.0855 
      7 S7         29.6424   -5.2157   -0.8397 S.3       12 UNK        -0.2931 
      8 C8         31.2275   -4.5647   -1.4723 C.3       12 UNK         0.0378 
      9 C9         31.0785   -3.8017   -2.7840 C.ar      12 UNK        -0.0802 
     10 C10        31.5998   -2.5084   -2.9024 C.ar      12 UNK        -0.0944 
     11 C11        31.4249   -1.7750   -4.0795 C.ar      12 UNK        -0.0787 
     12 C12        30.6987   -2.3423   -5.1308 C.ar      12 UNK        -0.0862 
     13 C13        30.1913   -3.6398   -5.0377 C.ar      12 UNK        -0.0733 
     14 C14        30.4030   -4.3736   -3.8684 C.ar      12 UNK        -0.0832 
     15 C15        29.4178   -4.2408   -6.2037 C.3       12 UNK         0.0240 
     16 S16        27.6775   -4.6124   -5.8021 S.3       12 UNK        -0.2522 
     17 C17        27.0298   -3.0225   -5.1849 C.3       12 UNK        -0.0967 
     18 CA         26.6230   -2.0352   -6.3143 C.3       5 UNK         0.0660 
     19 N          25.3714   -1.3378   -6.0107 N.am      5 UNK        -0.4015 
     20 C          24.6543   -0.6347   -6.9008 C.2       4 UNK         0.4946 
     21 O          24.9384   -0.5549   -8.0955 O.2       4 UNK        -0.5353 
     22 CA         23.4389    0.1465   -6.3672 C.3       4 UNK         0.0277 
     23 CB         22.1736   -0.7239   -6.4242 C.3       4 UNK        -0.1981 
     24 N          23.6270    0.6461   -5.0024 N.am      4 UNK        -0.4209 
     25 C          24.5609    1.5380   -4.6399 C.2       3 UNK         0.4942 
     26 O          25.3059    2.1028   -5.4380 O.2       3 UNK        -0.5208 
     27 CA         24.7389    1.8017   -3.1334 C.3       3 UNK         0.0250 
     28 CB         23.9288    3.0356   -2.7061 C.3       3 UNK        -0.1990 
     29 N          24.3842    0.6616   -2.2781 N.am      3 UNK        -0.4232 
     30 C          24.9509   -0.5522   -2.3355 C.2       2 UNK         0.4993 
     31 O          25.8323   -0.8600   -3.1431 O.2       2 UNK        -0.5286 
     32 CA         24.3617   -1.6158   -1.3968 C.3       2 UNK         0.0209 
     33 CB         23.0705   -2.1961   -1.9991 C.3       2 UNK        -0.1931 
     34 N          25.2966   -2.7152   -1.1599 N.am      2 UNK        -0.4546 
     35 C          26.3477   -2.6689   -0.3300 C.2       1 UNK         0.5154 
     36 O          26.6336   -1.6838    0.3519 O.2       1 UNK        -0.5181 
     37 C          27.7385   -1.0136   -6.6014 C.2       5 UNK         0.5014 
     38 O          28.4394   -1.1378   -7.6058 O.2       5 UNK        -0.5248 
     39 N          27.8513    0.0007   -5.7305 N.am      6 UNK        -0.4434 
     40 CA         28.8139    1.0991   -5.8459 C.3       6 UNK         0.0363 
     41 CB         28.7947    1.9317   -4.5540 C.3       6 UNK        -0.1936 
     42 C          28.5881    1.9975   -7.0741 C.2       6 UNK         0.5081 
     43 O          29.5523    2.5632   -7.5855 O.2       6 UNK        -0.5248 
     44 N          27.3322    2.1172   -7.5231 N.am      7 UNK        -0.4718 
     45 CA         26.9579    2.8006   -8.7608 C.3       7 UNK         0.0273 
     46 CB         25.4571    3.1312   -8.7250 C.3       7 UNK        -0.1935 
     47 C          27.3003    1.9780  -10.0155 C.2       7 UNK         0.5018 
     48 O          27.6730    2.5652  -11.0320 O.2       7 UNK        -0.5186 
     49 N          27.1450    0.6484   -9.9356 N.am      8 UNK        -0.4240 
     50 CA         27.4193   -0.2847  -11.0297 C.3       8 UNK         0.0235 
     51 CB         26.7001   -1.6181  -10.7648 C.3       8 UNK        -0.2000 
     52 C          28.9228   -0.5118  -11.2531 C.2       8 UNK         0.4941 
     53 O          29.3771   -0.4627  -12.3977 O.2       8 UNK        -0.5273 
     54 N          29.6602   -0.7771  -10.1680 N.am      9 UNK        -0.4262 
     55 CA         31.1064   -1.0031  -10.1814 C.3       9 UNK         0.0264 
     56 CB         31.4836   -1.8208   -8.9376 C.3       9 UNK        -0.1955 
     57 C          31.8903    0.3189  -10.2077 C.2       9 UNK         0.5031 
     58 O          31.3430    1.3798   -9.9034 O.2       9 UNK        -0.5390 
     59 N          33.1897    0.2314  -10.5158 N.am      10 UNK        -0.4204 
     60 CA         34.1291    1.3582  -10.5339 C.3       10 UNK         0.0237 
     61 CB         35.2822    1.0267  -11.5012 C.3       10 UNK        -0.1985 
     62 C          34.6276    1.7412   -9.1220 C.2       10 UNK         0.4970 
     63 O          35.8348    1.8834   -8.9178 O.2       10 UNK        -0.4914 
     64 N          33.6985    1.8959   -8.1705 N.am      11 UNK        -0.4285 
     65 CA         33.9774    2.2996   -6.7806 C.3       11 UNK         0.1007 
     66 C          34.1859    3.8312   -6.5949 C.2       11 UNK         0.5703 
     67 N          33.9297    4.6688   -7.5934 N.am      11 UNK        -0.7361 
     68 O          34.6036    4.2679   -5.5248 O.2       11 UNK        -0.4986 
     69 C69        32.9098    1.7567   -5.7942 C.3       12 UNK        -0.0947 
     70 S70        32.8389   -0.0636   -5.7774 S.3       12 UNK        -0.2240 
     71 C71        31.9833   -0.3597   -4.1939 C.3       12 UNK         0.0194 
     72 H72        24.2790   -6.0436    1.6915 H         1 UNK         0.0906 
     73 H73        25.8198   -5.2634    2.0079 H         1 UNK         0.0906 
     74 H74        24.5105   -4.3682    1.2128 H         1 UNK         0.0906 
     75 H75        26.8371   -5.5153   -1.5678 H         1 UNK         0.3140 
     76 H76        27.4356   -4.0792    0.8451 H         1 UNK         0.1085 
     77 H77        29.0924   -2.8933   -0.5379 H         1 UNK         0.0836 
     78 H78        28.3793   -3.5244   -2.0035 H         1 UNK         0.0836 
     79 H79        31.6687   -3.9281   -0.7037 H         1 UNK         0.0731 
     80 H80        31.9193   -5.3950   -1.6199 H         1 UNK         0.0731 
     81 H81        32.1321   -2.0659   -2.0714 H         1 UNK         0.1312 
     82 H82        30.5311   -1.7687   -6.0287 H         1 UNK         0.1406 
     83 H83        30.0033   -5.3755   -3.7864 H         1 UNK         0.1631 
     84 H84        29.9089   -5.1638   -6.5145 H         1 UNK         0.0717 
     85 H85        29.4439   -3.5805   -7.0709 H         1 UNK         0.0717 
     86 H86        26.1537   -3.2833   -4.5889 H         1 UNK         0.0934 
     87 H87        27.7236   -2.5811   -4.4663 H         1 UNK         0.0934 
     88 H88        26.4517   -2.6004   -7.2334 H         1 UNK         0.0739 
     89 H89        25.1256   -1.2841   -5.0292 H         1 UNK         0.3093 
     90 H90        23.2914    1.0095   -7.0200 H         1 UNK         0.0818 
     91 H91        21.2887   -0.1581   -6.1320 H         1 UNK         0.0819 
     92 H92        22.0001   -1.0919   -7.4366 H         1 UNK         0.0819 
     93 H93        22.2489   -1.5935   -5.7700 H         1 UNK         0.0819 
     94 H94        23.0432    0.2460   -4.2829 H         1 UNK         0.3041 
     95 H95        25.7970    2.0141   -2.9675 H         1 UNK         0.0784 
     96 H96        24.1922    3.9038   -3.3122 H         1 UNK         0.0793 
     97 H97        22.8557    2.8743   -2.8173 H         1 UNK         0.0793 
     98 H98        24.1241    3.2991   -1.6664 H         1 UNK         0.0793 
     99 H99        23.6538    0.8240   -1.5991 H         1 UNK         0.3024 
    100 H100       24.1288   -1.1446   -0.4387 H         1 UNK         0.1171 
    101 H101       22.3179   -1.4205   -2.1468 H         1 UNK         0.0786 
    102 H102       22.6299   -2.9461   -1.3416 H         1 UNK         0.0786 
    103 H103       23.2503   -2.6655   -2.9675 H         1 UNK         0.0786 
    104 H104       25.1588   -3.5568   -1.7001 H         1 UNK         0.2977 
    105 H105       27.2264    0.0230   -4.9350 H         1 UNK         0.3127 
    106 H106       29.8024    0.6526   -5.9598 H         1 UNK         0.0770 
    107 H107       27.8444    2.4501   -4.4239 H         1 UNK         0.0814 
    108 H108       29.5782    2.6905   -4.5716 H         1 UNK         0.0814 
    109 H109       28.9614    1.3117   -3.6732 H         1 UNK         0.0814 
    110 H110       26.5802    1.7325   -6.9605 H         1 UNK         0.2983 
    111 H111       27.5128    3.7398   -8.8174 H         1 UNK         0.0947 
    112 H112       25.1566    3.6772   -9.6202 H         1 UNK         0.0806 
    113 H113       25.2087    3.7540   -7.8653 H         1 UNK         0.0806 
    114 H114       24.8464    2.2294   -8.6719 H         1 UNK         0.0806 
    115 H115       26.7997    0.2492   -9.0711 H         1 UNK         0.3000 
    116 H116       27.0087    0.1388  -11.9489 H         1 UNK         0.0850 
    117 H117       26.8854   -2.3295  -11.5706 H         1 UNK         0.0810 
    118 H118       25.6210   -1.4779  -10.6975 H         1 UNK         0.0810 
    119 H119       27.0331   -2.0816   -9.8354 H         1 UNK         0.0810 
    120 H120       29.2064   -0.7877   -9.2560 H         1 UNK         0.3040 
    121 H121       31.3668   -1.5793  -11.0719 H         1 UNK         0.0766 
    122 H122       32.5435   -2.0771   -8.9300 H         1 UNK         0.0812 
    123 H123       30.9234   -2.7543   -8.8882 H         1 UNK         0.0812 
    124 H124       31.2793   -1.2555   -8.0301 H         1 UNK         0.0812 
    125 H125       33.5807   -0.6795  -10.7107 H         1 UNK         0.3205 
    126 H126       33.6135    2.2351  -10.9315 H         1 UNK         0.0754 
    127 H127       35.9697    1.8685  -11.5958 H         1 UNK         0.0769 
    128 H128       34.9097    0.8050  -12.5016 H         1 UNK         0.0769 
    129 H129       35.8618    0.1678  -11.1603 H         1 UNK         0.0769 
    130 H130       32.7232    1.7857   -8.4280 H         1 UNK         0.2981 
    131 H131       34.9285    1.8477   -6.4922 H         1 UNK         0.0541 
    132 H132       33.5796    4.3244   -8.4726 H         1 UNK         0.3459 
    133 H133       34.0762    5.6567   -7.4589 H         1 UNK         0.3459 
    134 H134       31.9214    2.1439   -6.0474 H         1 UNK         0.0612 
    135 H135       33.1230    2.0915   -4.7771 H         1 UNK         0.0612 
    136 H136       32.6844   -0.1555   -3.3833 H         1 UNK         0.0624 
    137 H137       31.1649    0.3489   -4.0786 H         1 UNK         0.0624 
@<TRIPOS>BOND
     1    1    2 1    
     2    1   72 1    
     3    1   73 1    
     4    1   74 1    
     5    2    3 2    
     6    2    4 am   BACKBONE|DICT|INTERRES
     7    4    5 1    
     8    4   75 1    
     9    5    6 1    
    10    5   35 1    
    11    5   76 1    
    12    6    7 1    
    13    6   77 1    
    14    6   78 1    
    15    7    8 1    
    16    8    9 1    
    17    8   79 1    
    18    8   80 1    
    19    9   10 ar   
    20    9   14 ar   
    21   10   11 ar   
    22   10   81 1    
    23   11   12 ar   
    24   11   71 1    
    25   12   13 ar   
    26   12   82 1    
    27   13   14 ar   
    28   13   15 1    
    29   14   83 1    
    30   15   16 1    
    31   15   84 1    
    32   15   85 1    
    33   16   17 1    
    34   17   18 1    
    35   17   86 1    
    36   17   87 1    
    37   18   19 1    
    38   18   37 1    
    39   18   88 1    
    40   19   20 am   BACKBONE|DICT|INTERRES
    41   19   89 1    
    42   20   21 2    
    43   20   22 1    
    44   22   23 1    
    45   22   24 1    
    46   22   90 1    
    47   23   91 1    
    48   23   92 1    
    49   23   93 1    
    50   24   25 am   BACKBONE|DICT|INTERRES
    51   24   94 1    
    52   25   26 2    
    53   25   27 1    
    54   27   28 1    
    55   27   29 1    
    56   27   95 1    
    57   28   96 1    
    58   28   97 1    
    59   28   98 1    
    60   29   30 am   BACKBONE|DICT|INTERRES
    61   29   99 1    
    62   30   31 2    
    63   30   32 1    
    64   32   33 1    
    65   32   34 1    
    66   32  100 1    
    67   33  101 1    
    68   33  102 1    
    69   33  103 1    
    70   34   35 am   BACKBONE|DICT|INTERRES
    71   34  104 1    
    72   35   36 2    
    73   37   38 2    
    74   37   39 am   BACKBONE|DICT|INTERRES
    75   39   40 1    
    76   39  105 1    
    77   40   41 1    
    78   40   42 1    
    79   40  106 1    
    80   41  107 1    
    81   41  108 1    
    82   41  109 1    
    83   42   43 2    
    84   42   44 am   BACKBONE|DICT|INTERRES
    85   44   45 1    
    86   44  110 1    
    87   45   46 1    
    88   45   47 1    
    89   45  111 1    
    90   46  112 1    
    91   46  113 1    
    92   46  114 1    
    93   47   48 2    
    94   47   49 am   BACKBONE|DICT|INTERRES
    95   49   50 1    
    96   49  115 1    
    97   50   51 1    
    98   50   52 1    
    99   50  116 1    
   100   51  117 1    
   101   51  118 1    
   102   51  119 1    
   103   52   53 2    
   104   52   54 am   BACKBONE|DICT|INTERRES
   105   54   55 1    
   106   54  120 1    
   107   55   56 1    
   108   55   57 1    
   109   55  121 1    
   110   56  122 1    
   111   56  123 1    
   112   56  124 1    
   113   57   58 2    
   114   57   59 am   BACKBONE|DICT|INTERRES
   115   59   60 1    
   116   59  125 1    
   117   60   61 1    
   118   60   62 1    
   119   60  126 1    
   120   61  127 1    
   121   61  128 1    
   122   61  129 1    
   123   62   63 2    
   124   62   64 am   BACKBONE|DICT|INTERRES
   125   64   65 1    
   126   64  130 1    
   127   65   66 1    
   128   65   69 1    
   129   65  131 1    
   130   66   67 am   BACKBONE|DICT|INTERRES
   131   66   68 2    
   132   67  132 1    
   133   67  133 1    
   134   69   70 1    
   135   69  134 1    
   136   69  135 1    
   137   70   71 1    
   138   71  136 1    
   139   71  137 1    
@<TRIPOS>SUBSTRUCTURE
     1 UNK         1 GROUP             0       ****    0 ROOT    
