@<TRIPOS>MOLECULE
3R137
137   139    1
SMALL
USER_CHARGES


@<TRIPOS>ATOM
      1 CA         29.8442   -0.9674    2.6897 C.3       0 UNK        -0.2020 
      2 C          28.9999   -1.8859    1.8180 C.2       0 UNK         0.4855 
      3 O          28.1075   -2.5595    2.3349 O.2       0 UNK        -0.5197 
      4 N          29.2850   -1.9123    0.5076 N.am      1 UNK        -0.4892 
      5 CA         28.5974   -2.6969   -0.5342 C.3       1 UNK         0.0835 
      6 C6         28.6539   -4.2383   -0.2978 C.3       12 UNK        -0.0855 
      7 S7         30.3522   -4.8403    0.0344 S.3       12 UNK        -0.2931 
      8 C8         30.8236   -5.6559   -1.5272 C.3       12 UNK         0.0378 
      9 C9         30.6598   -4.7493   -2.7400 C.ar      12 UNK        -0.0802 
     10 C10        31.3595   -3.5403   -2.8290 C.ar      12 UNK        -0.0944 
     11 C11        31.1713   -2.6821   -3.9183 C.ar      12 UNK        -0.0787 
     12 C12        30.2962   -3.0681   -4.9396 C.ar      12 UNK        -0.0862 
     13 C13        29.6022   -4.2778   -4.8679 C.ar      12 UNK        -0.0733 
     14 C14        29.7871   -5.1159   -3.7676 C.ar      12 UNK        -0.0832 
     15 C15        28.6324   -4.6618   -5.9696 C.3       12 UNK         0.0240 
     16 S16        26.9336   -4.1910   -5.5185 S.3       12 UNK        -0.2522 
     17 C17        26.2171   -3.9059   -7.1712 C.3       12 UNK        -0.0967 
     18 CA         26.0739   -2.4204   -7.5971 C.3       5 UNK         0.0660 
     19 N          24.9067   -1.7537   -7.0182 N.am      5 UNK        -0.4015 
     20 C          24.3037   -0.7067   -7.6023 C.2       4 UNK         0.4946 
     21 O          24.6709   -0.2145   -8.6712 O.2       4 UNK        -0.5353 
     22 CA         23.1075   -0.0879   -6.8627 C.3       4 UNK         0.0277 
     23 CB         21.8570   -0.9709   -7.0057 C.3       4 UNK        -0.1981 
     24 N          23.3820    0.1591   -5.4465 N.am      4 UNK        -0.4209 
     25 C          24.2971    1.0279   -4.9947 C.2       3 UNK         0.4942 
     26 O          25.0058    1.7224   -5.7229 O.2       3 UNK        -0.5208 
     27 CA         24.4729    1.1178   -3.4698 C.3       3 UNK         0.0250 
     28 CB         23.4539    2.0993   -2.8689 C.3       3 UNK        -0.1990 
     29 N          24.3925   -0.1673   -2.7637 N.am      3 UNK        -0.4232 
     30 C          25.1579   -1.2375   -3.0202 C.2       2 UNK         0.4993 
     31 O          25.9259   -1.3201   -3.9800 O.2       2 UNK        -0.5286 
     32 CA         25.0474   -2.4210   -2.0459 C.3       2 UNK         0.0209 
     33 CB         24.2833   -3.5914   -2.6852 C.3       2 UNK        -0.1931 
     34 N          26.3810   -2.8660   -1.6275 N.am      2 UNK        -0.4546 
     35 C          27.1666   -2.1620   -0.7985 C.2       1 UNK         0.5154 
     36 O          26.7964   -1.1042   -0.2785 O.2       1 UNK        -0.5181 
     37 C          27.3515   -1.5743   -7.4231 C.2       5 UNK         0.5014 
     38 O          28.1847   -1.5779   -8.3258 O.2       5 UNK        -0.5248 
     39 N          27.4707   -0.8306   -6.3115 N.am      6 UNK        -0.4434 
     40 CA         28.5558    0.1220   -6.0604 C.3       6 UNK         0.0363 
     41 CB         28.4699    0.6520   -4.6223 C.3       6 UNK        -0.1936 
     42 C          28.5979    1.2723   -7.0750 C.2       6 UNK         0.5081 
     43 O          29.6880    1.6506   -7.5062 O.2       6 UNK        -0.5248 
     44 N          27.4213    1.7769   -7.4714 N.am      7 UNK        -0.4718 
     45 CA         27.2692    2.7566   -8.5474 C.3       7 UNK         0.0273 
     46 CB         25.8365    3.3124   -8.5465 C.3       7 UNK        -0.1935 
     47 C          27.6301    2.1751   -9.9244 C.2       7 UNK         0.5018 
     48 O          28.3191    2.8448  -10.6936 O.2       7 UNK        -0.5186 
     49 N          27.1827    0.9406  -10.2018 N.am      8 UNK        -0.4240 
     50 CA         27.4632    0.2186  -11.4476 C.3       8 UNK         0.0235 
     51 CB         26.5741   -1.0320  -11.5370 C.3       8 UNK        -0.2000 
     52 C          28.9478   -0.1541  -11.6080 C.2       8 UNK         0.4941 
     53 O          29.5070    0.0412  -12.6877 O.2       8 UNK        -0.5273 
     54 N          29.5614   -0.6672  -10.5326 N.am      9 UNK        -0.4262 
     55 CA         30.9824   -1.0193  -10.4610 C.3       9 UNK         0.0264 
     56 CB         31.2128   -1.9378   -9.2486 C.3       9 UNK        -0.1955 
     57 C          31.9116    0.2040  -10.3772 C.2       9 UNK         0.5031 
     58 O          33.0985    0.0677  -10.6777 O.2       9 UNK        -0.5390 
     59 N          31.3624    1.3556   -9.9629 N.am      10 UNK        -0.4204 
     60 CA         32.0340    2.6309   -9.7044 C.3       10 UNK         0.0237 
     61 CB         32.6277    3.2258  -10.9996 C.3       10 UNK        -0.1985 
     62 C          33.0529    2.5086   -8.5574 C.2       10 UNK         0.4970 
     63 O          34.2292    2.8325   -8.7351 O.2       10 UNK        -0.4914 
     64 N          32.5739    2.0354   -7.3983 N.am      11 UNK        -0.4285 
     65 CA         33.3650    1.9043   -6.1618 C.3       11 UNK         0.1007 
     66 C          33.8417    3.2570   -5.5521 C.2       11 UNK         0.5703 
     67 N          33.2275    4.3889   -5.8783 N.am      11 UNK        -0.7361 
     68 O          34.7891    3.2768   -4.7699 O.2       11 UNK        -0.4986 
     69 C69        32.6268    1.0718   -5.0820 C.3       12 UNK        -0.0947 
     70 S70        32.3084   -0.6590   -5.5561 S.3       12 UNK        -0.2240 
     71 C71        31.8489   -1.3127   -3.9135 C.3       12 UNK         0.0194 
     72 H72        30.6029   -0.4386    2.1130 H         1 UNK         0.0906 
     73 H73        29.2108   -0.2262    3.1765 H         1 UNK         0.0906 
     74 H74        30.3493   -1.5452    3.4633 H         1 UNK         0.0906 
     75 H75        30.0185   -1.3096    0.1627 H         1 UNK         0.3140 
     76 H76        29.1409   -2.4905   -1.4567 H         1 UNK         0.1085 
     77 H77        28.0261   -4.5182    0.5496 H         1 UNK         0.0836 
     78 H78        28.2531   -4.7816   -1.1544 H         1 UNK         0.0836 
     79 H79        31.8649   -5.9733   -1.4595 H         1 UNK         0.0731 
     80 H80        30.2326   -6.5666   -1.6372 H         1 UNK         0.0731 
     81 H81        32.0202   -3.2509   -2.0229 H         1 UNK         0.1312 
     82 H82        30.1334   -2.4256   -5.7902 H         1 UNK         0.1406 
     83 H83        29.2366   -6.0452   -3.7077 H         1 UNK         0.1631 
     84 H84        28.6740   -5.7355   -6.1585 H         1 UNK         0.0717 
     85 H85        28.9267   -4.1732   -6.9000 H         1 UNK         0.0717 
     86 H86        25.2415   -4.3932   -7.2038 H         1 UNK         0.0934 
     87 H87        26.8172   -4.4372   -7.9122 H         1 UNK         0.0934 
     88 H88        25.8955   -2.4575   -8.6738 H         1 UNK         0.0739 
     89 H89        24.6064   -2.0644   -6.1054 H         1 UNK         0.3093 
     90 H90        22.8966    0.8758   -7.3318 H         1 UNK         0.0818 
     91 H91        20.9807   -0.4898   -6.5708 H         1 UNK         0.0819 
     92 H92        21.6318   -1.1588   -8.0566 H         1 UNK         0.0819 
     93 H93        21.9830   -1.9399   -6.5213 H         1 UNK         0.0819 
     94 H94        22.8490   -0.3698   -4.7718 H         1 UNK         0.3041 
     95 H95        25.4712    1.5185   -3.2852 H         1 UNK         0.0784 
     96 H96        23.5065    3.0693   -3.3659 H         1 UNK         0.0793 
     97 H97        22.4308    1.7355   -2.9720 H         1 UNK         0.0793 
     98 H98        23.6448    2.2715   -1.8094 H         1 UNK         0.0793 
     99 H99        23.7826   -0.1931   -1.9590 H         1 UNK         0.3024 
    100 H100       24.4988   -2.1022   -1.1565 H         1 UNK         0.1171 
    101 H101       24.1831   -4.4259   -1.9909 H         1 UNK         0.0786 
    102 H102       24.7797   -3.9606   -3.5818 H         1 UNK         0.0786 
    103 H103       23.2760   -3.2884   -2.9736 H         1 UNK         0.0786 
    104 H104       26.7502   -3.6825   -2.0920 H         1 UNK         0.2977 
    105 H105       26.7859   -0.9477   -5.5653 H         1 UNK         0.3127 
    106 H106       29.4965   -0.4120   -6.1688 H         1 UNK         0.0770 
    107 H107       27.5363    1.1860   -4.4483 H         1 UNK         0.0814 
    108 H108       29.2858    1.3428   -4.4093 H         1 UNK         0.0814 
    109 H109       28.5325   -0.1605   -3.8980 H         1 UNK         0.0814 
    110 H110       26.5713    1.4635   -7.0121 H         1 UNK         0.2983 
    111 H111       27.9547    3.5834   -8.3481 H         1 UNK         0.0947 
    112 H112       25.7021    4.0501   -9.3387 H         1 UNK         0.0806 
    113 H113       25.6049    3.8047   -7.6018 H         1 UNK         0.0806 
    114 H114       25.0967    2.5262   -8.7011 H         1 UNK         0.0806 
    115 H115       26.5902    0.4759   -9.5230 H         1 UNK         0.3000 
    116 H116       27.1980    0.8792  -12.2759 H         1 UNK         0.0850 
    117 H117       26.7097   -1.5371  -12.4942 H         1 UNK         0.0810 
    118 H118       25.5176   -0.7766  -11.4509 H         1 UNK         0.0810 
    119 H119       26.8098   -1.7526  -10.7543 H         1 UNK         0.0810 
    120 H120       29.0074   -0.8654   -9.6976 H         1 UNK         0.3040 
    121 H121       31.2442   -1.5718  -11.3658 H         1 UNK         0.0766 
    122 H122       30.9660   -1.4348   -8.3125 H         1 UNK         0.0812 
    123 H123       30.6057   -2.8409   -9.3122 H         1 UNK         0.0812 
    124 H124       32.2559   -2.2504   -9.1846 H         1 UNK         0.0812 
    125 H125       30.3889    1.3264   -9.6875 H         1 UNK         0.3205 
    126 H126       31.2588    3.3158   -9.3568 H         1 UNK         0.0754 
    127 H127       33.0296    4.2236  -10.8197 H         1 UNK         0.0769 
    128 H128       31.8676    3.3171  -11.7757 H         1 UNK         0.0769 
    129 H129       33.4402    2.6163  -11.3960 H         1 UNK         0.0769 
    130 H130       31.5864    1.7998   -7.3376 H         1 UNK         0.2981 
    131 H131       34.2744    1.3615   -6.4267 H         1 UNK         0.0541 
    132 H132       33.5483    5.2569   -5.4794 H         1 UNK         0.3459 
    133 H133       32.4448    4.3823   -6.5118 H         1 UNK         0.3459 
    134 H134       31.6748    1.5418   -4.8305 H         1 UNK         0.0612 
    135 H135       33.2102    1.0506   -4.1591 H         1 UNK         0.0612 
    136 H136       32.7494   -1.3420   -3.2980 H         1 UNK         0.0624 
    137 H137       31.1671   -0.6093   -3.4338 H         1 UNK         0.0624 
@<TRIPOS>BOND
     1    1    2 1    
     2    1   72 1    
     3    1   73 1    
     4    1   74 1    
     5    2    3 2    
     6    2    4 am   BACKBONE|DICT|INTERRES
     7    4    5 1    
     8    4   75 1    
     9    5    6 1    
    10    5   35 1    
    11    5   76 1    
    12    6    7 1    
    13    6   77 1    
    14    6   78 1    
    15    7    8 1    
    16    8    9 1    
    17    8   79 1    
    18    8   80 1    
    19    9   10 ar   
    20    9   14 ar   
    21   10   11 ar   
    22   10   81 1    
    23   11   12 ar   
    24   11   71 1    
    25   12   13 ar   
    26   12   82 1    
    27   13   14 ar   
    28   13   15 1    
    29   14   83 1    
    30   15   16 1    
    31   15   84 1    
    32   15   85 1    
    33   16   17 1    
    34   17   18 1    
    35   17   86 1    
    36   17   87 1    
    37   18   19 1    
    38   18   37 1    
    39   18   88 1    
    40   19   20 am   BACKBONE|DICT|INTERRES
    41   19   89 1    
    42   20   21 2    
    43   20   22 1    
    44   22   23 1    
    45   22   24 1    
    46   22   90 1    
    47   23   91 1    
    48   23   92 1    
    49   23   93 1    
    50   24   25 am   BACKBONE|DICT|INTERRES
    51   24   94 1    
    52   25   26 2    
    53   25   27 1    
    54   27   28 1    
    55   27   29 1    
    56   27   95 1    
    57   28   96 1    
    58   28   97 1    
    59   28   98 1    
    60   29   30 am   BACKBONE|DICT|INTERRES
    61   29   99 1    
    62   30   31 2    
    63   30   32 1    
    64   32   33 1    
    65   32   34 1    
    66   32  100 1    
    67   33  101 1    
    68   33  102 1    
    69   33  103 1    
    70   34   35 am   BACKBONE|DICT|INTERRES
    71   34  104 1    
    72   35   36 2    
    73   37   38 2    
    74   37   39 am   BACKBONE|DICT|INTERRES
    75   39   40 1    
    76   39  105 1    
    77   40   41 1    
    78   40   42 1    
    79   40  106 1    
    80   41  107 1    
    81   41  108 1    
    82   41  109 1    
    83   42   43 2    
    84   42   44 am   BACKBONE|DICT|INTERRES
    85   44   45 1    
    86   44  110 1    
    87   45   46 1    
    88   45   47 1    
    89   45  111 1    
    90   46  112 1    
    91   46  113 1    
    92   46  114 1    
    93   47   48 2    
    94   47   49 am   BACKBONE|DICT|INTERRES
    95   49   50 1    
    96   49  115 1    
    97   50   51 1    
    98   50   52 1    
    99   50  116 1    
   100   51  117 1    
   101   51  118 1    
   102   51  119 1    
   103   52   53 2    
   104   52   54 am   BACKBONE|DICT|INTERRES
   105   54   55 1    
   106   54  120 1    
   107   55   56 1    
   108   55   57 1    
   109   55  121 1    
   110   56  122 1    
   111   56  123 1    
   112   56  124 1    
   113   57   58 2    
   114   57   59 am   BACKBONE|DICT|INTERRES
   115   59   60 1    
   116   59  125 1    
   117   60   61 1    
   118   60   62 1    
   119   60  126 1    
   120   61  127 1    
   121   61  128 1    
   122   61  129 1    
   123   62   63 2    
   124   62   64 am   BACKBONE|DICT|INTERRES
   125   64   65 1    
   126   64  130 1    
   127   65   66 1    
   128   65   69 1    
   129   65  131 1    
   130   66   67 am   BACKBONE|DICT|INTERRES
   131   66   68 2    
   132   67  132 1    
   133   67  133 1    
   134   69   70 1    
   135   69  134 1    
   136   69  135 1    
   137   70   71 1    
   138   71  136 1    
   139   71  137 1    
@<TRIPOS>SUBSTRUCTURE
     1 UNK         1 GROUP             0       ****    0 ROOT    
