@<TRIPOS>MOLECULE
3R137
137   139    1
SMALL
USER_CHARGES


@<TRIPOS>ATOM
      1 CA         28.5080   -2.9057    3.6655 C.3       0 UNK        -0.2020 
      2 C          28.7094   -1.9587    2.4918 C.2       0 UNK         0.4855 
      3 O          28.8007   -0.7467    2.6911 O.2       0 UNK        -0.5197 
      4 N          28.7900   -2.5019    1.2717 N.am      1 UNK        -0.4892 
      5 CA         28.8971   -1.7454    0.0204 C.3       1 UNK         0.0835 
      6 C6         29.4659   -2.6121   -1.1327 C.3       12 UNK        -0.0855 
      7 S7         28.6175   -4.2142   -1.3714 S.3       12 UNK        -0.2931 
      8 C8         29.9398   -5.1917   -2.1515 C.3       12 UNK         0.0378 
      9 C9         30.2251   -4.7072   -3.5649 C.ar      12 UNK        -0.0802 
     10 C10        31.2775   -3.8197   -3.8127 C.ar      12 UNK        -0.0944 
     11 C11        31.5365   -3.3750   -5.1119 C.ar      12 UNK        -0.0787 
     12 C12        30.7260   -3.8166   -6.1607 C.ar      12 UNK        -0.0862 
     13 C13        29.6692   -4.7023   -5.9313 C.ar      12 UNK        -0.0733 
     14 C14        29.4341   -5.1544   -4.6275 C.ar      12 UNK        -0.0832 
     15 C15        28.8344   -5.1800   -7.1191 C.3       12 UNK         0.0240 
     16 S16        27.0757   -5.5208   -6.7584 S.3       12 UNK        -0.2522 
     17 C17        26.4741   -3.9373   -6.0832 C.3       12 UNK        -0.0967 
     18 CA         26.2727   -2.8424   -7.1684 C.3       5 UNK         0.0660 
     19 N          24.9974   -2.1393   -7.0113 N.am      5 UNK        -0.4015 
     20 C          24.5002   -1.2242   -7.8568 C.2       4 UNK         0.4946 
     21 O          25.0526   -0.8743   -8.8984 O.2       4 UNK        -0.5353 
     22 CA         23.1672   -0.5643   -7.4635 C.3       4 UNK         0.0277 
     23 CB         21.9884   -1.3162   -8.1018 C.3       4 UNK        -0.1981 
     24 N          22.9626   -0.4730   -6.0151 N.am      4 UNK        -0.4209 
     25 C          23.7461    0.2113   -5.1695 C.2       3 UNK         0.4942 
     26 O          24.7190    0.8782   -5.5347 O.2       3 UNK        -0.5208 
     27 CA         23.3580    0.1353   -3.6778 C.3       3 UNK         0.0250 
     28 CB         22.8906   -1.2749   -3.2474 C.3       3 UNK        -0.1990 
     29 N          24.4149    0.6140   -2.7796 N.am      3 UNK        -0.4232 
     30 C          25.6481    0.1097   -2.6235 C.2       2 UNK         0.4993 
     31 O          26.0833   -0.8609   -3.2522 O.2       2 UNK        -0.5286 
     32 CA         26.5614    0.8591   -1.6274 C.3       2 UNK         0.0209 
     33 CB         25.7943    1.5240   -0.4592 C.3       2 UNK        -0.1931 
     34 N          27.6596    0.0287   -1.1160 N.am      2 UNK        -0.4546 
     35 C          27.5583   -1.0752   -0.3600 C.2       1 UNK         0.5154 
     36 O          26.4899   -1.5542    0.0338 O.2       1 UNK        -0.5181 
     37 C          27.4554   -1.8562   -7.2060 C.2       5 UNK         0.5014 
     38 O          28.2031   -1.8364   -8.1869 O.2       5 UNK        -0.5248 
     39 N          27.5772   -1.0259   -6.1581 N.am      6 UNK        -0.4434 
     40 CA         28.6302   -0.0163   -6.0649 C.3       6 UNK         0.0363 
     41 CB         28.7196    0.5412   -4.6401 C.3       6 UNK        -0.1936 
     42 C          28.4520    1.1196   -7.0783 C.2       6 UNK         0.5081 
     43 O          29.4538    1.6167   -7.5874 O.2       6 UNK        -0.5248 
     44 N          27.1991    1.4890   -7.3845 N.am      7 UNK        -0.4718 
     45 CA         26.8698    2.4846   -8.4086 C.3       7 UNK         0.0273 
     46 CB         25.3673    2.8006   -8.3685 C.3       7 UNK        -0.1935 
     47 C          27.3006    2.0529   -9.8218 C.2       7 UNK         0.5018 
     48 O          27.8355    2.8778  -10.5630 O.2       7 UNK        -0.5186 
     49 N          27.0864    0.7725  -10.1590 N.am      8 UNK        -0.4240 
     50 CA         27.5215    0.1668  -11.4185 C.3       8 UNK         0.0235 
     51 CB         26.8193   -1.1865  -11.6158 C.3       8 UNK        -0.2000 
     52 C          29.0473    0.0019  -11.4981 C.2       8 UNK         0.4941 
     53 O          29.6315    0.3120  -12.5372 O.2       8 UNK        -0.5273 
     54 N          29.6643   -0.4845  -10.4112 N.am      9 UNK        -0.4262 
     55 CA         31.1103   -0.7127  -10.3246 C.3       9 UNK         0.0264 
     56 CB         31.4007   -1.6489   -9.1442 C.3       9 UNK        -0.1955 
     57 C          31.9436    0.5748  -10.2006 C.2       9 UNK         0.5031 
     58 O          33.1099    0.5678  -10.5968 O.2       9 UNK        -0.5390 
     59 N          31.3470    1.6330   -9.6332 N.am      10 UNK        -0.4204 
     60 CA         31.9473    2.9253   -9.2814 C.3       10 UNK         0.0237 
     61 CB         32.4505    3.6752  -10.5339 C.3       10 UNK        -0.1985 
     62 C          33.0093    2.8153   -8.1673 C.2       10 UNK         0.4970 
     63 O          33.9229    3.6413   -8.1140 O.2       10 UNK        -0.4914 
     64 N          32.8731    1.8060   -7.2965 N.am      11 UNK        -0.4285 
     65 CA         33.7293    1.5896   -6.1232 C.3       11 UNK         0.1007 
     66 C          33.3485    2.4993   -4.9209 C.2       11 UNK         0.5703 
     67 N          34.2347    2.6314   -3.9426 N.am      11 UNK        -0.7361 
     68 O          32.2636    3.0755   -4.8548 O.2       11 UNK        -0.4986 
     69 C69        33.8195    0.0858   -5.7451 C.3       12 UNK        -0.0947 
     70 S70        32.2281   -0.6988   -5.3213 S.3       12 UNK        -0.2240 
     71 C71        32.7114   -2.4492   -5.3920 C.3       12 UNK         0.0194 
     72 H72        28.4609   -3.9467    3.3462 H         1 UNK         0.0906 
     73 H73        29.3295   -2.8055    4.3744 H         1 UNK         0.0906 
     74 H74        27.5793   -2.6679    4.1837 H         1 UNK         0.0906 
     75 H75        28.6667   -3.4981    1.1526 H         1 UNK         0.3140 
     76 H76        29.6114   -0.9373    0.1968 H         1 UNK         0.1085 
     77 H77        29.4540   -2.0668   -2.0788 H         1 UNK         0.0836 
     78 H78        30.5184   -2.8109   -0.9255 H         1 UNK         0.0836 
     79 H79        30.8417   -5.1533   -1.5384 H         1 UNK         0.0731 
     80 H80        29.6360   -6.2393   -2.1768 H         1 UNK         0.0731 
     81 H81        31.8993   -3.4785   -2.9964 H         1 UNK         0.1312 
     82 H82        30.9290   -3.4795   -7.1651 H         1 UNK         0.1406 
     83 H83        28.6289   -5.8492   -4.4320 H         1 UNK         0.1631 
     84 H84        29.2860   -6.0944   -7.5055 H         1 UNK         0.0717 
     85 H85        28.8819   -4.4541   -7.9318 H         1 UNK         0.0717 
     86 H86        27.1200   -3.6115   -5.2649 H         1 UNK         0.0934 
     87 H87        25.5234   -4.1715   -5.6017 H         1 UNK         0.0934 
     88 H88        26.2256   -3.3200   -8.1497 H         1 UNK         0.0739 
     89 H89        24.4692   -2.3442   -6.1770 H         1 UNK         0.3093 
     90 H90        23.1732    0.4526   -7.8585 H         1 UNK         0.0818 
     91 H91        21.0425   -0.8094   -7.9101 H         1 UNK         0.0819 
     92 H92        22.1064   -1.3765   -9.1849 H         1 UNK         0.0819 
     93 H93        21.9064   -2.3370   -7.7263 H         1 UNK         0.0819 
     94 H94        22.1710   -0.9742   -5.6381 H         1 UNK         0.3041 
     95 H95        22.5195    0.8209   -3.5470 H         1 UNK         0.0784 
     96 H96        21.9631   -1.5637   -3.7422 H         1 UNK         0.0793 
     97 H97        23.6375   -2.0372   -3.4729 H         1 UNK         0.0793 
     98 H98        22.6968   -1.3135   -2.1752 H         1 UNK         0.0793 
     99 H99        24.1814    1.4404   -2.2480 H         1 UNK         0.3024 
    100 H100       27.0327    1.6591   -2.1999 H         1 UNK         0.1171 
    101 H101       26.4819    1.9634    0.2637 H         1 UNK         0.0786 
    102 H102       25.1671    0.8091    0.0751 H         1 UNK         0.0786 
    103 H103       25.1510    2.3323   -0.8081 H         1 UNK         0.0786 
    104 H104       28.5825    0.3189   -1.4062 H         1 UNK         0.2977 
    105 H105       26.9167   -1.0722   -5.3900 H         1 UNK         0.3127 
    106 H106       29.5728   -0.5139   -6.2938 H         1 UNK         0.0770 
    107 H107       27.8284    1.1134   -4.3854 H         1 UNK         0.0814 
    108 H108       29.5770    1.2085   -4.5397 H         1 UNK         0.0814 
    109 H109       28.8403   -0.2578   -3.9087 H         1 UNK         0.0814 
    110 H110       26.4248    1.0587   -6.8904 H         1 UNK         0.2983 
    111 H111       27.4152    3.3986   -8.1631 H         1 UNK         0.0947 
    112 H112       25.1220    3.6082   -9.0594 H         1 UNK         0.0806 
    113 H113       25.0514    3.1157   -7.3738 H         1 UNK         0.0806 
    114 H114       24.7683    1.9370   -8.6544 H         1 UNK         0.0806 
    115 H115       26.5791    0.1700   -9.5153 H         1 UNK         0.3000 
    116 H116       27.2164    0.8272  -12.2332 H         1 UNK         0.0850 
    117 H117       27.1289   -1.6567  -12.5500 H         1 UNK         0.0810 
    118 H118       25.7365   -1.0670  -11.6555 H         1 UNK         0.0810 
    119 H119       27.0470   -1.8817  -10.8064 H         1 UNK         0.0810 
    120 H120       29.1028   -0.7726   -9.6134 H         1 UNK         0.3040 
    121 H121       31.4292   -1.2172  -11.2394 H         1 UNK         0.0766 
    122 H122       32.4701   -1.8399   -9.0431 H         1 UNK         0.0812 
    123 H123       31.0516   -1.2266   -8.2014 H         1 UNK         0.0812 
    124 H124       30.9094   -2.6112   -9.2868 H         1 UNK         0.0812 
    125 H125       30.4136    1.4981   -9.2521 H         1 UNK         0.3205 
    126 H126       31.1359    3.5170   -8.8549 H         1 UNK         0.0754 
    127 H127       32.7373    4.6982  -10.2878 H         1 UNK         0.0769 
    128 H128       31.6754    3.7322  -11.2983 H         1 UNK         0.0769 
    129 H129       33.3228    3.1919  -10.9745 H         1 UNK         0.0769 
    130 H130       32.0534    1.2201   -7.3589 H         1 UNK         0.2981 
    131 H131       34.7392    1.8905   -6.4093 H         1 UNK         0.0541 
    132 H132       35.1271    2.1642   -3.9786 H         1 UNK         0.3459 
    133 H133       34.0054    3.2124   -3.1515 H         1 UNK         0.3459 
    134 H134       34.2547   -0.4614   -6.5829 H         1 UNK         0.0612 
    135 H135       34.5073   -0.0598   -4.9106 H         1 UNK         0.0612 
    136 H136       33.1277   -2.6682   -6.3766 H         1 UNK         0.0624 
    137 H137       33.5111   -2.6296   -4.6720 H         1 UNK         0.0624 
@<TRIPOS>BOND
     1    1    2 1    
     2    1   72 1    
     3    1   73 1    
     4    1   74 1    
     5    2    3 2    
     6    2    4 am   BACKBONE|DICT|INTERRES
     7    4    5 1    
     8    4   75 1    
     9    5    6 1    
    10    5   35 1    
    11    5   76 1    
    12    6    7 1    
    13    6   77 1    
    14    6   78 1    
    15    7    8 1    
    16    8    9 1    
    17    8   79 1    
    18    8   80 1    
    19    9   10 ar   
    20    9   14 ar   
    21   10   11 ar   
    22   10   81 1    
    23   11   12 ar   
    24   11   71 1    
    25   12   13 ar   
    26   12   82 1    
    27   13   14 ar   
    28   13   15 1    
    29   14   83 1    
    30   15   16 1    
    31   15   84 1    
    32   15   85 1    
    33   16   17 1    
    34   17   18 1    
    35   17   86 1    
    36   17   87 1    
    37   18   19 1    
    38   18   37 1    
    39   18   88 1    
    40   19   20 am   BACKBONE|DICT|INTERRES
    41   19   89 1    
    42   20   21 2    
    43   20   22 1    
    44   22   23 1    
    45   22   24 1    
    46   22   90 1    
    47   23   91 1    
    48   23   92 1    
    49   23   93 1    
    50   24   25 am   BACKBONE|DICT|INTERRES
    51   24   94 1    
    52   25   26 2    
    53   25   27 1    
    54   27   28 1    
    55   27   29 1    
    56   27   95 1    
    57   28   96 1    
    58   28   97 1    
    59   28   98 1    
    60   29   30 am   BACKBONE|DICT|INTERRES
    61   29   99 1    
    62   30   31 2    
    63   30   32 1    
    64   32   33 1    
    65   32   34 1    
    66   32  100 1    
    67   33  101 1    
    68   33  102 1    
    69   33  103 1    
    70   34   35 am   BACKBONE|DICT|INTERRES
    71   34  104 1    
    72   35   36 2    
    73   37   38 2    
    74   37   39 am   BACKBONE|DICT|INTERRES
    75   39   40 1    
    76   39  105 1    
    77   40   41 1    
    78   40   42 1    
    79   40  106 1    
    80   41  107 1    
    81   41  108 1    
    82   41  109 1    
    83   42   43 2    
    84   42   44 am   BACKBONE|DICT|INTERRES
    85   44   45 1    
    86   44  110 1    
    87   45   46 1    
    88   45   47 1    
    89   45  111 1    
    90   46  112 1    
    91   46  113 1    
    92   46  114 1    
    93   47   48 2    
    94   47   49 am   BACKBONE|DICT|INTERRES
    95   49   50 1    
    96   49  115 1    
    97   50   51 1    
    98   50   52 1    
    99   50  116 1    
   100   51  117 1    
   101   51  118 1    
   102   51  119 1    
   103   52   53 2    
   104   52   54 am   BACKBONE|DICT|INTERRES
   105   54   55 1    
   106   54  120 1    
   107   55   56 1    
   108   55   57 1    
   109   55  121 1    
   110   56  122 1    
   111   56  123 1    
   112   56  124 1    
   113   57   58 2    
   114   57   59 am   BACKBONE|DICT|INTERRES
   115   59   60 1    
   116   59  125 1    
   117   60   61 1    
   118   60   62 1    
   119   60  126 1    
   120   61  127 1    
   121   61  128 1    
   122   61  129 1    
   123   62   63 2    
   124   62   64 am   BACKBONE|DICT|INTERRES
   125   64   65 1    
   126   64  130 1    
   127   65   66 1    
   128   65   69 1    
   129   65  131 1    
   130   66   67 am   BACKBONE|DICT|INTERRES
   131   66   68 2    
   132   67  132 1    
   133   67  133 1    
   134   69   70 1    
   135   69  134 1    
   136   69  135 1    
   137   70   71 1    
   138   71  136 1    
   139   71  137 1    
@<TRIPOS>SUBSTRUCTURE
     1 UNK         1 GROUP             0       ****    0 ROOT    
