@<TRIPOS>MOLECULE
3R137
137   139    1
SMALL
USER_CHARGES


@<TRIPOS>ATOM
      1 CA         25.0933   -6.5177   -2.5748 C.3       0 UNK        -0.2020 
      2 C          25.2828   -5.2978   -1.6869 C.2       0 UNK         0.4855 
      3 O          24.3065   -4.6322   -1.3394 O.2       0 UNK        -0.5197 
      4 N          26.5363   -4.9972   -1.3264 N.am      1 UNK        -0.4892 
      5 CA         26.9686   -3.8466   -0.5250 C.3       1 UNK         0.0835 
      6 C6         28.4900   -3.8940   -0.2056 C.3       12 UNK        -0.0855 
      7 S7         29.5509   -4.4942   -1.5736 S.3       12 UNK        -0.2931 
      8 C8         31.0808   -3.5443   -1.3226 C.3       12 UNK         0.0378 
      9 C9         31.1074   -2.2739   -2.1596 C.ar      12 UNK        -0.0802 
     10 C10        31.5921   -2.3138   -3.4695 C.ar      12 UNK        -0.0944 
     11 C11        31.6781   -1.1480   -4.2399 C.ar      12 UNK        -0.0787 
     12 C12        31.2865    0.0704   -3.6735 C.ar      12 UNK        -0.0862 
     13 C13        30.7930    0.1247   -2.3637 C.ar      12 UNK        -0.0733 
     14 C14        30.6992   -1.0539   -1.6162 C.ar      12 UNK        -0.0832 
     15 C15        30.4030    1.4545   -1.7234 C.3       12 UNK         0.0240 
     16 S16        29.2050    2.4233   -2.6982 S.3       12 UNK        -0.2522 
     17 C17        27.8613    1.2200   -2.9668 C.3       12 UNK        -0.0967 
     18 CA         27.8083    0.7627   -4.4469 C.3       5 UNK         0.0660 
     19 N          27.4104   -0.6446   -4.5750 N.am      5 UNK        -0.4015 
     20 C          27.3499   -1.3393   -5.7217 C.2       4 UNK         0.4946 
     21 O          27.5863   -0.8572   -6.8275 O.2       4 UNK        -0.5353 
     22 CA         26.8762   -2.7960   -5.6253 C.3       4 UNK         0.0277 
     23 CB         27.9801   -3.7072   -5.0625 C.3       4 UNK        -0.1981 
     24 N          25.6723   -2.8766   -4.7970 N.am      4 UNK        -0.4209 
     25 C          24.4399   -2.5892   -5.2446 C.2       3 UNK         0.4942 
     26 O          24.1724   -2.3951   -6.4303 O.2       3 UNK        -0.5208 
     27 CA         23.3132   -2.4641   -4.2027 C.3       3 UNK         0.0250 
     28 CB         22.4956   -3.7625   -4.1184 C.3       3 UNK        -0.1990 
     29 N          23.7999   -2.0921   -2.8709 N.am      3 UNK        -0.4232 
     30 C          24.2803   -0.8760   -2.5662 C.2       2 UNK         0.4993 
     31 O          24.3235    0.0579   -3.3662 O.2       2 UNK        -0.5286 
     32 CA         24.8640   -0.6766   -1.1555 C.3       2 UNK         0.0209 
     33 CB         23.7748   -0.1896   -0.1872 C.3       2 UNK        -0.1931 
     34 N          25.5044   -1.8772   -0.6087 N.am      2 UNK        -0.4546 
     35 C          26.5368   -2.5172   -1.1756 C.2       1 UNK         0.5154 
     36 O          27.0857   -2.1285   -2.2070 O.2       1 UNK        -0.5181 
     37 C          26.9744    1.7360   -5.3095 C.2       5 UNK         0.5014 
     38 O          27.5057    2.7527   -5.7561 O.2       5 UNK        -0.5248 
     39 N          25.7087    1.3895   -5.5847 N.am      6 UNK        -0.4434 
     40 CA         24.8201    2.0716   -6.5307 C.3       6 UNK         0.0363 
     41 CB         23.4585    1.3587   -6.5366 C.3       6 UNK        -0.1936 
     42 C          25.3714    2.1856   -7.9691 C.2       6 UNK         0.5081 
     43 O          24.9624    3.0966   -8.6894 O.2       6 UNK        -0.5248 
     44 N          26.2954    1.2952   -8.3625 N.am      7 UNK        -0.4718 
     45 CA         27.0175    1.3540   -9.6377 C.3       7 UNK         0.0273 
     46 CB         27.4461   -0.0684  -10.0370 C.3       7 UNK        -0.1935 
     47 C          28.2342    2.3035   -9.6098 C.2       7 UNK         0.5018 
     48 O          28.8591    2.4844  -10.6555 O.2       7 UNK        -0.5186 
     49 N          28.5459    2.8910   -8.4433 N.am      8 UNK        -0.4240 
     50 CA         29.6861    3.7663   -8.1530 C.3       8 UNK         0.0235 
     51 CB         29.6286    5.0656   -8.9909 C.3       8 UNK        -0.2000 
     52 C          31.0247    3.0059   -8.2315 C.2       8 UNK         0.4941 
     53 O          31.0923    1.8559   -7.7920 O.2       8 UNK        -0.5273 
     54 N          32.0768    3.6644   -8.7372 N.am      9 UNK        -0.4262 
     55 CA         33.4088    3.0865   -8.9279 C.3       9 UNK         0.0264 
     56 CB         34.3990    4.2043   -9.2940 C.3       9 UNK        -0.1955 
     57 C          33.3979    1.9956  -10.0119 C.2       9 UNK         0.5031 
     58 O          32.7089    2.1551  -11.0224 O.2       9 UNK        -0.5390 
     59 N          34.1791    0.9290   -9.7832 N.am      10 UNK        -0.4204 
     60 CA         34.2626   -0.2914  -10.5982 C.3       10 UNK         0.0237 
     61 CB         34.8856    0.0009  -11.9812 C.3       10 UNK        -0.1985 
     62 C          32.9040   -1.0166  -10.6806 C.2       10 UNK         0.4970 
     63 O          32.4052   -1.2868  -11.7746 O.2       10 UNK        -0.4914 
     64 N          32.3310   -1.2990   -9.5033 N.am      11 UNK        -0.4285 
     65 CA         31.0313   -1.9635   -9.3167 C.3       11 UNK         0.1007 
     66 C          30.9272   -3.4247   -9.8503 C.2       11 UNK         0.5703 
     67 N          32.0283   -4.1178  -10.1171 N.am      11 UNK        -0.7361 
     68 O          29.8238   -3.9327  -10.0345 O.2       11 UNK        -0.4986 
     69 C69        30.5471   -1.8567   -7.8443 C.3       12 UNK        -0.0947 
     70 S70        31.7038   -2.6073   -6.6441 S.3       12 UNK        -0.2240 
     71 C71        32.2684   -1.1825   -5.6487 C.3       12 UNK         0.0194 
     72 H72        25.9570   -7.1814   -2.5374 H         1 UNK         0.0906 
     73 H73        24.2196   -7.0852   -2.2552 H         1 UNK         0.0906 
     74 H74        24.9437   -6.2117   -3.6096 H         1 UNK         0.0906 
     75 H75        27.3013   -5.5572   -1.6785 H         1 UNK         0.3140 
     76 H76        26.4445   -3.9208    0.4304 H         1 UNK         0.1085 
     77 H77        28.8431   -2.9212    0.1415 H         1 UNK         0.0836 
     78 H78        28.6519   -4.5720    0.6339 H         1 UNK         0.0836 
     79 H79        31.9269   -4.1760   -1.5974 H         1 UNK         0.0731 
     80 H80        31.2144   -3.3148   -0.2643 H         1 UNK         0.0731 
     81 H81        31.9199   -3.2575   -3.8830 H         1 UNK         0.1312 
     82 H82        31.3736    0.9827   -4.2481 H         1 UNK         0.1406 
     83 H83        30.3323   -1.0200   -0.5996 H         1 UNK         0.1631 
     84 H84        31.3039    2.0531   -1.5829 H         1 UNK         0.0717 
     85 H85        29.9835    1.2965   -0.7286 H         1 UNK         0.0717 
     86 H86        28.0251    0.3701   -2.3033 H         1 UNK         0.0934 
     87 H87        26.9149    1.6592   -2.6450 H         1 UNK         0.0934 
     88 H88        28.8189    0.7934   -4.8589 H         1 UNK         0.0739 
     89 H89        27.2398   -1.1452   -3.7042 H         1 UNK         0.3093 
     90 H90        26.6399   -3.1438   -6.6335 H         1 UNK         0.0818 
     91 H91        28.3377   -3.3710   -4.0898 H         1 UNK         0.0819 
     92 H92        27.6336   -4.7349   -4.9552 H         1 UNK         0.0819 
     93 H93        28.8434   -3.7235   -5.7284 H         1 UNK         0.0819 
     94 H94        25.8193   -2.9717   -3.8006 H         1 UNK         0.3041 
     95 H95        22.6443   -1.6716   -4.5461 H         1 UNK         0.0784 
     96 H96        22.0665   -4.0147   -5.0891 H         1 UNK         0.0793 
     97 H97        23.1057   -4.6083   -3.8050 H         1 UNK         0.0793 
     98 H98        21.6689   -3.6663   -3.4144 H         1 UNK         0.0793 
     99 H99        23.8340   -2.8281   -2.1710 H         1 UNK         0.3024 
    100 H100       25.6276    0.0998   -1.2277 H         1 UNK         0.1171 
    101 H101       23.2968    0.7167   -0.5623 H         1 UNK         0.0786 
    102 H102       24.1908    0.0479    0.7921 H         1 UNK         0.0786 
    103 H103       22.9927   -0.9374   -0.0489 H         1 UNK         0.0786 
    104 H104       25.0721   -2.2840    0.2088 H         1 UNK         0.2977 
    105 H105       25.3149    0.5989   -5.0851 H         1 UNK         0.3127 
    106 H106       24.6745    3.0881   -6.1601 H         1 UNK         0.0770 
    107 H107       23.5486    0.3250   -6.8728 H         1 UNK         0.0814 
    108 H108       22.7568    1.8599   -7.2048 H         1 UNK         0.0814 
    109 H109       23.0092    1.3504   -5.5433 H         1 UNK         0.0814 
    110 H110       26.6012    0.5740   -7.7123 H         1 UNK         0.2983 
    111 H111       26.3400    1.7270  -10.4090 H         1 UNK         0.0947 
    112 H112       27.9084   -0.0763  -11.0249 H         1 UNK         0.0806 
    113 H113       26.5942   -0.7475  -10.0715 H         1 UNK         0.0806 
    114 H114       28.1732   -0.4778   -9.3364 H         1 UNK         0.0806 
    115 H115       27.9865    2.6578   -7.6276 H         1 UNK         0.3000 
    116 H116       29.5738    4.0519   -7.1061 H         1 UNK         0.0850 
    117 H117       30.3463    5.8033   -8.6304 H         1 UNK         0.0810 
    118 H118       28.6438    5.5286   -8.9258 H         1 UNK         0.0810 
    119 H119       29.8380    4.8847  -10.0459 H         1 UNK         0.0810 
    120 H120       31.9290    4.5921   -9.1058 H         1 UNK         0.3040 
    121 H121       33.7194    2.6428   -7.9793 H         1 UNK         0.0766 
    122 H122       34.4437    4.9673   -8.5166 H         1 UNK         0.0812 
    123 H123       34.1270    4.6931  -10.2306 H         1 UNK         0.0812 
    124 H124       35.4081    3.8081   -9.4157 H         1 UNK         0.0812 
    125 H125       34.7213    0.9171   -8.9298 H         1 UNK         0.3205 
    126 H126       34.9399   -0.9684  -10.0751 H         1 UNK         0.0754 
    127 H127       35.0419   -0.9227  -12.5399 H         1 UNK         0.0769 
    128 H128       35.8556    0.4883  -11.8837 H         1 UNK         0.0769 
    129 H129       34.2483    0.6426  -12.5903 H         1 UNK         0.0769 
    130 H130       32.8088   -1.0418   -8.6535 H         1 UNK         0.2981 
    131 H131       30.3233   -1.3942   -9.9209 H         1 UNK         0.0541 
    132 H132       31.9464   -5.0593  -10.4665 H         1 UNK         0.3459 
    133 H133       32.9369   -3.7128   -9.9623 H         1 UNK         0.3459 
    134 H134       30.3711   -0.8116   -7.5869 H         1 UNK         0.0612 
    135 H135       29.5794   -2.3465   -7.7301 H         1 UNK         0.0612 
    136 H136       32.0635   -0.2512   -6.1784 H         1 UNK         0.0624 
    137 H137       33.3531   -1.2442   -5.5562 H         1 UNK         0.0624 
@<TRIPOS>BOND
     1    1    2 1    
     2    1   72 1    
     3    1   73 1    
     4    1   74 1    
     5    2    3 2    
     6    2    4 am   BACKBONE|DICT|INTERRES
     7    4    5 1    
     8    4   75 1    
     9    5    6 1    
    10    5   35 1    
    11    5   76 1    
    12    6    7 1    
    13    6   77 1    
    14    6   78 1    
    15    7    8 1    
    16    8    9 1    
    17    8   79 1    
    18    8   80 1    
    19    9   10 ar   
    20    9   14 ar   
    21   10   11 ar   
    22   10   81 1    
    23   11   12 ar   
    24   11   71 1    
    25   12   13 ar   
    26   12   82 1    
    27   13   14 ar   
    28   13   15 1    
    29   14   83 1    
    30   15   16 1    
    31   15   84 1    
    32   15   85 1    
    33   16   17 1    
    34   17   18 1    
    35   17   86 1    
    36   17   87 1    
    37   18   19 1    
    38   18   37 1    
    39   18   88 1    
    40   19   20 am   BACKBONE|DICT|INTERRES
    41   19   89 1    
    42   20   21 2    
    43   20   22 1    
    44   22   23 1    
    45   22   24 1    
    46   22   90 1    
    47   23   91 1    
    48   23   92 1    
    49   23   93 1    
    50   24   25 am   BACKBONE|DICT|INTERRES
    51   24   94 1    
    52   25   26 2    
    53   25   27 1    
    54   27   28 1    
    55   27   29 1    
    56   27   95 1    
    57   28   96 1    
    58   28   97 1    
    59   28   98 1    
    60   29   30 am   BACKBONE|DICT|INTERRES
    61   29   99 1    
    62   30   31 2    
    63   30   32 1    
    64   32   33 1    
    65   32   34 1    
    66   32  100 1    
    67   33  101 1    
    68   33  102 1    
    69   33  103 1    
    70   34   35 am   BACKBONE|DICT|INTERRES
    71   34  104 1    
    72   35   36 2    
    73   37   38 2    
    74   37   39 am   BACKBONE|DICT|INTERRES
    75   39   40 1    
    76   39  105 1    
    77   40   41 1    
    78   40   42 1    
    79   40  106 1    
    80   41  107 1    
    81   41  108 1    
    82   41  109 1    
    83   42   43 2    
    84   42   44 am   BACKBONE|DICT|INTERRES
    85   44   45 1    
    86   44  110 1    
    87   45   46 1    
    88   45   47 1    
    89   45  111 1    
    90   46  112 1    
    91   46  113 1    
    92   46  114 1    
    93   47   48 2    
    94   47   49 am   BACKBONE|DICT|INTERRES
    95   49   50 1    
    96   49  115 1    
    97   50   51 1    
    98   50   52 1    
    99   50  116 1    
   100   51  117 1    
   101   51  118 1    
   102   51  119 1    
   103   52   53 2    
   104   52   54 am   BACKBONE|DICT|INTERRES
   105   54   55 1    
   106   54  120 1    
   107   55   56 1    
   108   55   57 1    
   109   55  121 1    
   110   56  122 1    
   111   56  123 1    
   112   56  124 1    
   113   57   58 2    
   114   57   59 am   BACKBONE|DICT|INTERRES
   115   59   60 1    
   116   59  125 1    
   117   60   61 1    
   118   60   62 1    
   119   60  126 1    
   120   61  127 1    
   121   61  128 1    
   122   61  129 1    
   123   62   63 2    
   124   62   64 am   BACKBONE|DICT|INTERRES
   125   64   65 1    
   126   64  130 1    
   127   65   66 1    
   128   65   69 1    
   129   65  131 1    
   130   66   67 am   BACKBONE|DICT|INTERRES
   131   66   68 2    
   132   67  132 1    
   133   67  133 1    
   134   69   70 1    
   135   69  134 1    
   136   69  135 1    
   137   70   71 1    
   138   71  136 1    
   139   71  137 1    
@<TRIPOS>SUBSTRUCTURE
     1 UNK         1 GROUP             0       ****    0 ROOT    
