@<TRIPOS>MOLECULE
3R137
137   139    1
SMALL
USER_CHARGES


@<TRIPOS>ATOM
      1 CA         29.9464    0.4338   -0.9476 C.3       0 UNK        -0.2020 
      2 C          29.3756   -0.8189   -1.5934 C.2       0 UNK         0.4855 
      3 O          29.1842   -0.8450   -2.8046 O.2       0 UNK        -0.5197 
      4 N          29.1012   -1.8612   -0.7990 N.am      1 UNK        -0.4892 
      5 CA         28.5583   -3.1397   -1.2830 C.3       1 UNK         0.0835 
      6 C6         28.9992   -4.3063   -0.3572 C.3       12 UNK        -0.0855 
      7 S7         29.2764   -5.8860   -1.2304 S.3       12 UNK        -0.2931 
      8 C8         30.9607   -5.6768   -1.9147 C.3       12 UNK         0.0378 
      9 C9         30.9606   -4.7703   -3.1390 C.ar      12 UNK        -0.0802 
     10 C10        31.6495   -3.5499   -3.1319 C.ar      12 UNK        -0.0944 
     11 C11        31.5638   -2.6760   -4.2232 C.ar      12 UNK        -0.0787 
     12 C12        30.7580   -3.0342   -5.3098 C.ar      12 UNK        -0.0862 
     13 C13        30.1108   -4.2692   -5.3557 C.ar      12 UNK        -0.0733 
     14 C14        30.2262   -5.1395   -4.2706 C.ar      12 UNK        -0.0832 
     15 C15        29.2941   -4.6532   -6.5828 C.3       12 UNK         0.0240 
     16 S16        27.5429   -4.9841   -6.2080 S.3       12 UNK        -0.2522 
     17 C17        26.9979   -3.4132   -5.4629 C.3       12 UNK        -0.0967 
     18 CA         26.6341   -2.3350   -6.5197 C.3       5 UNK         0.0660 
     19 N          25.3001   -1.7769   -6.2907 N.am      5 UNK        -0.4015 
     20 C          24.6110   -1.0423   -7.1738 C.2       4 UNK         0.4946 
     21 O          25.0141   -0.7618   -8.3023 O.2       4 UNK        -0.5353 
     22 CA         23.2546   -0.4969   -6.6977 C.3       4 UNK         0.0277 
     23 CB         22.1647   -1.5760   -6.8021 C.3       4 UNK        -0.1981 
     24 N          23.3090    0.0228   -5.3287 N.am      4 UNK        -0.4209 
     25 C          24.0218    1.0993   -4.9703 C.2       3 UNK         0.4942 
     26 O          24.6683    1.7850   -5.7628 O.2       3 UNK        -0.5208 
     27 CA         24.0379    1.4646   -3.4762 C.3       3 UNK         0.0250 
     28 CB         22.8319    2.3541   -3.1334 C.3       3 UNK        -0.1990 
     29 N          24.0925    0.3338   -2.5382 N.am      3 UNK        -0.4232 
     30 C          24.9985   -0.6558   -2.5400 C.2       2 UNK         0.4993 
     31 O          25.7947   -0.8553   -3.4596 O.2       2 UNK        -0.5286 
     32 CA         25.0105   -1.5559   -1.2914 C.3       2 UNK         0.0209 
     33 CB         23.9499   -2.6727   -1.3801 C.3       2 UNK        -0.1931 
     34 N          26.3661   -2.0534   -1.0040 N.am      2 UNK        -0.4546 
     35 C          27.0334   -3.0871   -1.5447 C.2       1 UNK         0.5154 
     36 O          26.5139   -3.9615   -2.2375 O.2       1 UNK        -0.5181 
     37 C          27.6889   -1.2147   -6.5765 C.2       5 UNK         0.5014 
     38 O          28.5204   -1.2082   -7.4875 O.2       5 UNK        -0.5248 
     39 N          27.5901   -0.2704   -5.6270 N.am      6 UNK        -0.4434 
     40 CA         28.4155    0.9327   -5.5088 C.3       6 UNK         0.0363 
     41 CB         27.9025    1.7917   -4.3378 C.3       6 UNK        -0.1936 
     42 C          28.4304    1.7662   -6.7964 C.2       6 UNK         0.5081 
     43 O          29.5073    2.1423   -7.2618 O.2       6 UNK        -0.5248 
     44 N          27.2350    2.0172   -7.3484 N.am      7 UNK        -0.4718 
     45 CA         27.0317    2.7377   -8.6025 C.3       7 UNK         0.0273 
     46 CB         25.5472    3.1105   -8.7426 C.3       7 UNK        -0.1935 
     47 C          27.5101    1.9468   -9.8291 C.2       7 UNK         0.5018 
     48 O          28.1625    2.5303  -10.6949 O.2       7 UNK        -0.5186 
     49 N          27.1801    0.6472   -9.8881 N.am      8 UNK        -0.4240 
     50 CA         27.5073   -0.2370  -11.0107 C.3       8 UNK         0.0235 
     51 CB         26.7832   -1.5835  -10.8499 C.3       8 UNK        -0.2000 
     52 C          29.0153   -0.4584  -11.1996 C.2       8 UNK         0.4941 
     53 O          29.4996   -0.3650  -12.3284 O.2       8 UNK        -0.5273 
     54 N          29.7264   -0.7503  -10.1029 N.am      9 UNK        -0.4262 
     55 CA         31.1666   -1.0226  -10.1190 C.3       9 UNK         0.0264 
     56 CB         31.4828   -2.0540   -9.0305 C.3       9 UNK        -0.1955 
     57 C          32.0322    0.2381   -9.9408 C.2       9 UNK         0.5031 
     58 O          33.2454    0.1474  -10.1351 O.2       9 UNK        -0.5390 
     59 N          31.4123    1.3735   -9.5821 N.am      10 UNK        -0.4204 
     60 CA         32.0285    2.6759   -9.2999 C.3       10 UNK         0.0237 
     61 CB         32.6886    3.2688  -10.5640 C.3       10 UNK        -0.1985 
     62 C          32.9735    2.6180   -8.0833 C.2       10 UNK         0.4970 
     63 O          34.1459    2.9858   -8.1861 O.2       10 UNK        -0.4914 
     64 N          32.4309    2.1582   -6.9517 N.am      11 UNK        -0.4285 
     65 CA         33.1221    2.0382   -5.6559 C.3       11 UNK         0.1007 
     66 C          32.2421    2.4477   -4.4426 C.2       11 UNK         0.5703 
     67 N          31.1321    3.1458   -4.6446 N.am      11 UNK        -0.7361 
     68 O          32.5850    2.1694   -3.2962 O.2       11 UNK        -0.4986 
     69 C69        33.8747    0.6872   -5.4768 C.3       12 UNK        -0.0947 
     70 S70        32.8903   -0.8014   -5.8465 S.3       12 UNK        -0.2240 
     71 C71        32.3102   -1.3385   -4.1987 C.3       12 UNK         0.0194 
     72 H72        30.1087    0.3063    0.1224 H         1 UNK         0.0906 
     73 H73        30.9009    0.6883   -1.4085 H         1 UNK         0.0906 
     74 H74        29.2664    1.2726   -1.0932 H         1 UNK         0.0906 
     75 H75        29.2803   -1.7978    0.1937 H         1 UNK         0.3140 
     76 H76        28.9870   -3.3084   -2.2704 H         1 UNK         0.1085 
     77 H77        29.9338   -4.0597    0.1495 H         1 UNK         0.0836 
     78 H78        28.2728   -4.4670    0.4418 H         1 UNK         0.0836 
     79 H79        31.6289   -5.2972   -1.1402 H         1 UNK         0.0731 
     80 H80        31.3480   -6.6553   -2.2020 H         1 UNK         0.0731 
     81 H81        32.2290   -3.2655   -2.2644 H         1 UNK         0.1312 
     82 H82        30.6318   -2.3468   -6.1296 H         1 UNK         0.1406 
     83 H83        29.7022   -6.0858   -4.2865 H         1 UNK         0.1631 
     84 H84        29.7311   -5.5466   -7.0305 H         1 UNK         0.0717 
     85 H85        29.3460   -3.8749   -7.3454 H         1 UNK         0.0717 
     86 H86        26.1242   -3.6616   -4.8585 H         1 UNK         0.0934 
     87 H87        27.7359   -3.0651   -4.7361 H         1 UNK         0.0934 
     88 H88        26.6084   -2.7966   -7.5092 H         1 UNK         0.0739 
     89 H89        24.9391   -1.8631   -5.3507 H         1 UNK         0.3093 
     90 H90        22.9812    0.3278   -7.3599 H         1 UNK         0.0818 
     91 H91        21.1833   -1.1739   -6.5498 H         1 UNK         0.0819 
     92 H92        22.1008   -1.9664   -7.8189 H         1 UNK         0.0819 
     93 H93        22.3621   -2.4206   -6.1408 H         1 UNK         0.0819 
     94 H94        22.8013   -0.4807   -4.6160 H         1 UNK         0.3041 
     95 H95        24.9408    2.0525   -3.3041 H         1 UNK         0.0784 
     96 H96        22.7779    3.2145   -3.8024 H         1 UNK         0.0793 
     97 H97        21.8900    1.8114   -3.2242 H         1 UNK         0.0793 
     98 H98        22.8997    2.7430   -2.1172 H         1 UNK         0.0793 
     99 H99        23.4574    0.3907   -1.7548 H         1 UNK         0.3024 
    100 H100       24.7543   -0.9286   -0.4357 H         1 UNK         0.1171 
    101 H101       22.9432   -2.2533   -1.3752 H         1 UNK         0.0786 
    102 H102       24.0195   -3.3569   -0.5345 H         1 UNK         0.0786 
    103 H103       24.0454   -3.2567   -2.2960 H         1 UNK         0.0786 
    104 H104       26.9368   -1.4114   -0.4723 H         1 UNK         0.2977 
    105 H105       26.9092   -0.4162   -4.8831 H         1 UNK         0.3127 
    106 H106       29.4349    0.6077   -5.2908 H         1 UNK         0.0770 
    107 H107       26.9328    2.2354   -4.5546 H         1 UNK         0.0814 
    108 H108       28.5808    2.6148   -4.1240 H         1 UNK         0.0814 
    109 H109       27.7982    1.2130   -3.4218 H         1 UNK         0.0814 
    110 H110       26.4004    1.7017   -6.8627 H         1 UNK         0.2983 
    111 H111       27.6130    3.6614   -8.5570 H         1 UNK         0.0947 
    112 H112       25.3659    3.6583   -9.6684 H         1 UNK         0.0806 
    113 H113       25.2200    3.7460   -7.9195 H         1 UNK         0.0806 
    114 H114       24.9080    2.2262   -8.7530 H         1 UNK         0.0806 
    115 H115       26.6155    0.2474   -9.1447 H         1 UNK         0.3000 
    116 H116       27.1321    0.2378  -11.9198 H         1 UNK         0.0850 
    117 H117       27.0264   -2.2608  -11.6698 H         1 UNK         0.0810 
    118 H118       25.7010   -1.4528  -10.8506 H         1 UNK         0.0810 
    119 H119       27.0594   -2.0820   -9.9200 H         1 UNK         0.0810 
    120 H120       29.2501   -0.8315   -9.2051 H         1 UNK         0.3040 
    121 H121       31.4412   -1.4650  -11.0791 H         1 UNK         0.0766 
    122 H122       32.5439   -2.3064   -9.0158 H         1 UNK         0.0812 
    123 H123       30.9261   -2.9791   -9.1789 H         1 UNK         0.0812 
    124 H124       31.2268   -1.6564   -8.0529 H         1 UNK         0.0812 
    125 H125       30.4157    1.3262   -9.4149 H         1 UNK         0.3205 
    126 H126       31.2120    3.3442   -9.0222 H         1 UNK         0.0754 
    127 H127       33.0439    4.2829  -10.3770 H         1 UNK         0.0769 
    128 H128       31.9808    3.3208  -11.3914 H         1 UNK         0.0769 
    129 H129       33.5464    2.6814  -10.8926 H         1 UNK         0.0769 
    130 H130       31.4470    1.9052   -6.9563 H         1 UNK         0.2981 
    131 H131       33.8944    2.8092   -5.6387 H         1 UNK         0.0541 
    132 H132       30.8405    3.4035   -5.5744 H         1 UNK         0.3459 
    133 H133       30.5935    3.4371   -3.8457 H         1 UNK         0.3459 
    134 H134       34.3131    0.6004   -4.4814 H         1 UNK         0.0612 
    135 H135       34.7234    0.6721   -6.1620 H         1 UNK         0.0612 
    136 H136       33.1711   -1.4057   -3.5321 H         1 UNK         0.0624 
    137 H137       31.6525   -0.5713   -3.7906 H         1 UNK         0.0624 
@<TRIPOS>BOND
     1    1    2 1    
     2    1   72 1    
     3    1   73 1    
     4    1   74 1    
     5    2    3 2    
     6    2    4 am   BACKBONE|DICT|INTERRES
     7    4    5 1    
     8    4   75 1    
     9    5    6 1    
    10    5   35 1    
    11    5   76 1    
    12    6    7 1    
    13    6   77 1    
    14    6   78 1    
    15    7    8 1    
    16    8    9 1    
    17    8   79 1    
    18    8   80 1    
    19    9   10 ar   
    20    9   14 ar   
    21   10   11 ar   
    22   10   81 1    
    23   11   12 ar   
    24   11   71 1    
    25   12   13 ar   
    26   12   82 1    
    27   13   14 ar   
    28   13   15 1    
    29   14   83 1    
    30   15   16 1    
    31   15   84 1    
    32   15   85 1    
    33   16   17 1    
    34   17   18 1    
    35   17   86 1    
    36   17   87 1    
    37   18   19 1    
    38   18   37 1    
    39   18   88 1    
    40   19   20 am   BACKBONE|DICT|INTERRES
    41   19   89 1    
    42   20   21 2    
    43   20   22 1    
    44   22   23 1    
    45   22   24 1    
    46   22   90 1    
    47   23   91 1    
    48   23   92 1    
    49   23   93 1    
    50   24   25 am   BACKBONE|DICT|INTERRES
    51   24   94 1    
    52   25   26 2    
    53   25   27 1    
    54   27   28 1    
    55   27   29 1    
    56   27   95 1    
    57   28   96 1    
    58   28   97 1    
    59   28   98 1    
    60   29   30 am   BACKBONE|DICT|INTERRES
    61   29   99 1    
    62   30   31 2    
    63   30   32 1    
    64   32   33 1    
    65   32   34 1    
    66   32  100 1    
    67   33  101 1    
    68   33  102 1    
    69   33  103 1    
    70   34   35 am   BACKBONE|DICT|INTERRES
    71   34  104 1    
    72   35   36 2    
    73   37   38 2    
    74   37   39 am   BACKBONE|DICT|INTERRES
    75   39   40 1    
    76   39  105 1    
    77   40   41 1    
    78   40   42 1    
    79   40  106 1    
    80   41  107 1    
    81   41  108 1    
    82   41  109 1    
    83   42   43 2    
    84   42   44 am   BACKBONE|DICT|INTERRES
    85   44   45 1    
    86   44  110 1    
    87   45   46 1    
    88   45   47 1    
    89   45  111 1    
    90   46  112 1    
    91   46  113 1    
    92   46  114 1    
    93   47   48 2    
    94   47   49 am   BACKBONE|DICT|INTERRES
    95   49   50 1    
    96   49  115 1    
    97   50   51 1    
    98   50   52 1    
    99   50  116 1    
   100   51  117 1    
   101   51  118 1    
   102   51  119 1    
   103   52   53 2    
   104   52   54 am   BACKBONE|DICT|INTERRES
   105   54   55 1    
   106   54  120 1    
   107   55   56 1    
   108   55   57 1    
   109   55  121 1    
   110   56  122 1    
   111   56  123 1    
   112   56  124 1    
   113   57   58 2    
   114   57   59 am   BACKBONE|DICT|INTERRES
   115   59   60 1    
   116   59  125 1    
   117   60   61 1    
   118   60   62 1    
   119   60  126 1    
   120   61  127 1    
   121   61  128 1    
   122   61  129 1    
   123   62   63 2    
   124   62   64 am   BACKBONE|DICT|INTERRES
   125   64   65 1    
   126   64  130 1    
   127   65   66 1    
   128   65   69 1    
   129   65  131 1    
   130   66   67 am   BACKBONE|DICT|INTERRES
   131   66   68 2    
   132   67  132 1    
   133   67  133 1    
   134   69   70 1    
   135   69  134 1    
   136   69  135 1    
   137   70   71 1    
   138   71  136 1    
   139   71  137 1    
@<TRIPOS>SUBSTRUCTURE
     1 UNK         1 GROUP             0       ****    0 ROOT    
