@<TRIPOS>MOLECULE
3R137
137   139    1
SMALL
USER_CHARGES


@<TRIPOS>ATOM
      1 CA         24.6576   -6.6923    0.7909 C.3       0 UNK        -0.2020 
      2 C          25.1804   -5.2638    0.7650 C.2       0 UNK         0.4855 
      3 O          25.0241   -4.5369    1.7467 O.2       0 UNK        -0.5197 
      4 N          25.8069   -4.8580   -0.3464 N.am      1 UNK        -0.4892 
      5 CA         26.2988   -3.4963   -0.5749 C.3       1 UNK         0.0835 
      6 C6         27.3422   -3.4695   -1.7173 C.3       12 UNK        -0.0855 
      7 S7         28.4005   -1.9821   -1.6582 S.3       12 UNK        -0.2931 
      8 C8         30.0763   -2.6982   -1.5979 C.3       12 UNK         0.0378 
      9 C9         30.6669   -2.9244   -2.9862 C.ar      12 UNK        -0.0802 
     10 C10        31.6849   -2.0883   -3.4573 C.ar      12 UNK        -0.0944 
     11 C11        32.2759   -2.3122   -4.7049 C.ar      12 UNK        -0.0787 
     12 C12        31.8338   -3.3846   -5.4878 C.ar      12 UNK        -0.0862 
     13 C13        30.8053   -4.2182   -5.0398 C.ar      12 UNK        -0.0733 
     14 C14        30.2314   -3.9872   -3.7847 C.ar      12 UNK        -0.0832 
     15 C15        30.3410   -5.3898   -5.8975 C.3       12 UNK         0.0240 
     16 S16        29.4292   -4.8622   -7.3865 S.3       12 UNK        -0.2522 
     17 C17        27.9188   -4.1357   -6.6636 C.3       12 UNK        -0.0967 
     18 CA         27.4125   -2.8765   -7.4217 C.3       5 UNK         0.0660 
     19 N          26.0581   -2.4569   -7.0329 N.am      5 UNK        -0.4015 
     20 C          25.6559   -2.1320   -5.7976 C.2       4 UNK         0.4946 
     21 O          26.3594   -2.2657   -4.7954 O.2       4 UNK        -0.5353 
     22 CA         24.2612   -1.5008   -5.6558 C.3       4 UNK         0.0277 
     23 CB         23.2230   -2.5625   -5.2621 C.3       4 UNK        -0.1981 
     24 N          24.2732   -0.4375   -4.6469 N.am      4 UNK        -0.4209 
     25 C          25.0472    0.6551   -4.6911 C.2       3 UNK         0.4942 
     26 O          25.7377    0.9538   -5.6664 O.2       3 UNK        -0.5208 
     27 CA         25.1082    1.5573   -3.4455 C.3       3 UNK         0.0250 
     28 CB         24.1235    2.7365   -3.5688 C.3       3 UNK        -0.1990 
     29 N          24.9722    0.8613   -2.1543 N.am      3 UNK        -0.4232 
     30 C          23.8926    0.2629   -1.6306 C.2       2 UNK         0.4993 
     31 O          22.8137    0.1544   -2.2164 O.2       2 UNK        -0.5286 
     32 CA         24.0781   -0.3348   -0.2236 C.3       2 UNK         0.0209 
     33 CB         22.7579   -0.8501    0.3911 C.3       2 UNK        -0.1931 
     34 N          25.1136   -1.3778   -0.1876 N.am      2 UNK        -0.4546 
     35 C          25.1112   -2.5468   -0.8481 C.2       1 UNK         0.5154 
     36 O          24.2251   -2.9018   -1.6297 O.2       1 UNK        -0.5181 
     37 C          28.4070   -1.6938   -7.3743 C.2       5 UNK         0.5014 
     38 O          28.9940   -1.3695   -8.4070 O.2       5 UNK        -0.5248 
     39 N          28.5385   -1.0458   -6.2083 N.am      6 UNK        -0.4434 
     40 CA         29.4500    0.0673   -5.9334 C.3       6 UNK         0.0363 
     41 CB         29.2800    0.5308   -4.4794 C.3       6 UNK        -0.1936 
     42 C          29.3051    1.2556   -6.8956 C.2       6 UNK         0.5081 
     43 O          30.3084    1.7144   -7.4431 O.2       6 UNK        -0.5248 
     44 N          28.0685    1.7283   -7.0982 N.am      7 UNK        -0.4718 
     45 CA         27.7600    2.8305   -8.0128 C.3       7 UNK         0.0273 
     46 CB         26.4022    3.4446   -7.6368 C.3       7 UNK        -0.1935 
     47 C          27.7628    2.3982   -9.4878 C.2       7 UNK         0.5018 
     48 O          28.0438    3.2270  -10.3529 O.2       7 UNK        -0.5186 
     49 N          27.4583    1.1192   -9.7506 N.am      8 UNK        -0.4240 
     50 CA         27.4255    0.5304  -11.0920 C.3       8 UNK         0.0235 
     51 CB         26.6590   -0.8024  -11.0608 C.3       8 UNK        -0.2000 
     52 C          28.8352    0.3452  -11.6733 C.2       8 UNK         0.4941 
     53 O          29.0723    0.7197  -12.8221 O.2       8 UNK        -0.5273 
     54 N          29.7499   -0.1987  -10.8594 N.am      9 UNK        -0.4262 
     55 CA         31.1706   -0.3462  -11.1853 C.3       9 UNK         0.0264 
     56 CB         31.7592   -1.4764  -10.3261 C.3       9 UNK        -0.1955 
     57 C          31.9718    0.9569  -10.9990 C.2       9 UNK         0.5031 
     58 O          33.1070    1.0291  -11.4713 O.2       9 UNK        -0.5390 
     59 N          31.3786    1.9471  -10.3141 N.am      10 UNK        -0.4204 
     60 CA         31.9360    3.2566   -9.9512 C.3       10 UNK         0.0237 
     61 CB         32.2335    4.1050  -11.2061 C.3       10 UNK        -0.1985 
     62 C          33.1326    3.1618   -8.9821 C.2       10 UNK         0.4970 
     63 O          34.0127    4.0317   -9.0022 O.2       10 UNK        -0.4914 
     64 N          33.1290    2.1164   -8.1425 N.am      11 UNK        -0.4285 
     65 CA         34.0970    1.8788   -7.0642 C.3       11 UNK         0.1007 
     66 C          33.6104    2.3901   -5.6781 C.2       11 UNK         0.5703 
     67 N          32.3446    2.7582   -5.5119 N.am      11 UNK        -0.7361 
     68 O          34.4036    2.4746   -4.7431 O.2       11 UNK        -0.4986 
     69 C69        34.5447    0.3931   -7.0235 C.3       12 UNK        -0.0947 
     70 S70        33.1619   -0.7875   -6.8647 S.3       12 UNK        -0.2240 
     71 C71        33.4168   -1.4170   -5.1768 C.3       12 UNK         0.0194 
     72 H72        25.1144   -7.2441    1.6121 H         1 UNK         0.0906 
     73 H73        23.5777   -6.6936    0.9383 H         1 UNK         0.0906 
     74 H74        24.8737   -7.2234   -0.1359 H         1 UNK         0.0906 
     75 H75        25.8660   -5.4833   -1.1375 H         1 UNK         0.3140 
     76 H76        26.7950   -3.1785    0.3453 H         1 UNK         0.1085 
     77 H77        26.8634   -3.5425   -2.6936 H         1 UNK         0.0836 
     78 H78        27.9787   -4.3511   -1.6403 H         1 UNK         0.0836 
     79 H79        30.0747   -3.6323   -1.0348 H         1 UNK         0.0731 
     80 H80        30.7116   -2.0163   -1.0308 H         1 UNK         0.0731 
     81 H81        32.0293   -1.2682   -2.8423 H         1 UNK         0.1312 
     82 H82        32.2884   -3.5699   -6.4515 H         1 UNK         0.1406 
     83 H83        29.4493   -4.6408   -3.4265 H         1 UNK         0.1631 
     84 H84        29.7150   -6.0718   -5.3199 H         1 UNK         0.0717 
     85 H85        31.2119   -5.9683   -6.2086 H         1 UNK         0.0717 
     86 H86        27.1466   -4.9062   -6.6751 H         1 UNK         0.0934 
     87 H87        28.0932   -3.9093   -5.6123 H         1 UNK         0.0934 
     88 H88        27.3237   -3.1571   -8.4726 H         1 UNK         0.0739 
     89 H89        25.4169   -2.3084   -7.7994 H         1 UNK         0.3093 
     90 H90        23.9715   -1.0532   -6.6086 H         1 UNK         0.0818 
     91 H91        22.2261   -2.1303   -5.1744 H         1 UNK         0.0819 
     92 H92        23.1693   -3.3553   -6.0093 H         1 UNK         0.0819 
     93 H93        23.4705   -3.0293   -4.3075 H         1 UNK         0.0819 
     94 H94        23.7279   -0.5876   -3.8042 H         1 UNK         0.3041 
     95 H95        26.1135    1.9817   -3.4344 H         1 UNK         0.0784 
     96 H96        24.3171    3.3083   -4.4775 H         1 UNK         0.0793 
     97 H97        23.0869    2.4016   -3.6146 H         1 UNK         0.0793 
     98 H98        24.2186    3.4233   -2.7278 H         1 UNK         0.0793 
     99 H99        25.8217    0.8275   -1.6072 H         1 UNK         0.3024 
    100 H100       24.4301    0.4806    0.4111 H         1 UNK         0.1171 
    101 H101       22.3179   -1.6549   -0.1986 H         1 UNK         0.0786 
    102 H102       22.0179   -0.0508    0.4486 H         1 UNK         0.0786 
    103 H103       22.9112   -1.2234    1.4036 H         1 UNK         0.0786 
    104 H104       25.9033   -1.1805    0.4122 H         1 UNK         0.2977 
    105 H105       27.9629   -1.3720   -5.4357 H         1 UNK         0.3127 
    106 H106       30.4615   -0.3211   -6.0458 H         1 UNK         0.0770 
    107 H107       29.9562    1.3547   -4.2484 H         1 UNK         0.0814 
    108 H108       28.2642    0.8706   -4.2778 H         1 UNK         0.0814 
    109 H109       29.5059   -0.2739   -3.7826 H         1 UNK         0.0814 
    110 H110       27.2856    1.3236   -6.5852 H         1 UNK         0.2983 
    111 H111       28.5240    3.6026   -7.8951 H         1 UNK         0.0947 
    112 H112       26.1755    4.3062   -8.2663 H         1 UNK         0.0806 
    113 H113       26.3948    3.7871   -6.6018 H         1 UNK         0.0806 
    114 H114       25.5879    2.7291   -7.7573 H         1 UNK         0.0806 
    115 H115       27.2888    0.5034   -8.9691 H         1 UNK         0.3000 
    116 H116       26.8831    1.2149  -11.7482 H         1 UNK         0.0850 
    117 H117       25.6415   -0.6669  -10.6938 H         1 UNK         0.0810 
    118 H118       27.1502   -1.5418  -10.4283 H         1 UNK         0.0810 
    119 H119       26.5866   -1.2301  -12.0617 H         1 UNK         0.0810 
    120 H120       29.4587   -0.5327   -9.9396 H         1 UNK         0.3040 
    121 H121       31.2638   -0.6353  -12.2343 H         1 UNK         0.0766 
    122 H122       32.8278   -1.5991  -10.5075 H         1 UNK         0.0812 
    123 H123       31.2796   -2.4302  -10.5454 H         1 UNK         0.0812 
    124 H124       31.6265   -1.2781   -9.2631 H         1 UNK         0.0812 
    125 H125       30.4614    1.7542   -9.9358 H         1 UNK         0.3205 
    126 H126       31.1477    3.7660   -9.3948 H         1 UNK         0.0754 
    127 H127       32.4958    5.1279  -10.9335 H         1 UNK         0.0769 
    128 H128       31.3638    4.1586  -11.8616 H         1 UNK         0.0769 
    129 H129       33.0652    3.6994  -11.7830 H         1 UNK         0.0769 
    130 H130       32.3167    1.5043   -8.1389 H         1 UNK         0.2981 
    131 H131       34.9959    2.4599   -7.2779 H         1 UNK         0.0541 
    132 H132       31.6750    2.6346   -6.2624 H         1 UNK         0.3459 
    133 H133       32.0465    3.1061   -4.6153 H         1 UNK         0.3459 
    134 H134       35.0688    0.1530   -7.9499 H         1 UNK         0.0612 
    135 H135       35.2723    0.2274   -6.2267 H         1 UNK         0.0612 
    136 H136       34.3496   -1.9812   -5.1422 H         1 UNK         0.0624 
    137 H137       33.5373   -0.5666   -4.5037 H         1 UNK         0.0624 
@<TRIPOS>BOND
     1    1    2 1    
     2    1   72 1    
     3    1   73 1    
     4    1   74 1    
     5    2    3 2    
     6    2    4 am   BACKBONE|DICT|INTERRES
     7    4    5 1    
     8    4   75 1    
     9    5    6 1    
    10    5   35 1    
    11    5   76 1    
    12    6    7 1    
    13    6   77 1    
    14    6   78 1    
    15    7    8 1    
    16    8    9 1    
    17    8   79 1    
    18    8   80 1    
    19    9   10 ar   
    20    9   14 ar   
    21   10   11 ar   
    22   10   81 1    
    23   11   12 ar   
    24   11   71 1    
    25   12   13 ar   
    26   12   82 1    
    27   13   14 ar   
    28   13   15 1    
    29   14   83 1    
    30   15   16 1    
    31   15   84 1    
    32   15   85 1    
    33   16   17 1    
    34   17   18 1    
    35   17   86 1    
    36   17   87 1    
    37   18   19 1    
    38   18   37 1    
    39   18   88 1    
    40   19   20 am   BACKBONE|DICT|INTERRES
    41   19   89 1    
    42   20   21 2    
    43   20   22 1    
    44   22   23 1    
    45   22   24 1    
    46   22   90 1    
    47   23   91 1    
    48   23   92 1    
    49   23   93 1    
    50   24   25 am   BACKBONE|DICT|INTERRES
    51   24   94 1    
    52   25   26 2    
    53   25   27 1    
    54   27   28 1    
    55   27   29 1    
    56   27   95 1    
    57   28   96 1    
    58   28   97 1    
    59   28   98 1    
    60   29   30 am   BACKBONE|DICT|INTERRES
    61   29   99 1    
    62   30   31 2    
    63   30   32 1    
    64   32   33 1    
    65   32   34 1    
    66   32  100 1    
    67   33  101 1    
    68   33  102 1    
    69   33  103 1    
    70   34   35 am   BACKBONE|DICT|INTERRES
    71   34  104 1    
    72   35   36 2    
    73   37   38 2    
    74   37   39 am   BACKBONE|DICT|INTERRES
    75   39   40 1    
    76   39  105 1    
    77   40   41 1    
    78   40   42 1    
    79   40  106 1    
    80   41  107 1    
    81   41  108 1    
    82   41  109 1    
    83   42   43 2    
    84   42   44 am   BACKBONE|DICT|INTERRES
    85   44   45 1    
    86   44  110 1    
    87   45   46 1    
    88   45   47 1    
    89   45  111 1    
    90   46  112 1    
    91   46  113 1    
    92   46  114 1    
    93   47   48 2    
    94   47   49 am   BACKBONE|DICT|INTERRES
    95   49   50 1    
    96   49  115 1    
    97   50   51 1    
    98   50   52 1    
    99   50  116 1    
   100   51  117 1    
   101   51  118 1    
   102   51  119 1    
   103   52   53 2    
   104   52   54 am   BACKBONE|DICT|INTERRES
   105   54   55 1    
   106   54  120 1    
   107   55   56 1    
   108   55   57 1    
   109   55  121 1    
   110   56  122 1    
   111   56  123 1    
   112   56  124 1    
   113   57   58 2    
   114   57   59 am   BACKBONE|DICT|INTERRES
   115   59   60 1    
   116   59  125 1    
   117   60   61 1    
   118   60   62 1    
   119   60  126 1    
   120   61  127 1    
   121   61  128 1    
   122   61  129 1    
   123   62   63 2    
   124   62   64 am   BACKBONE|DICT|INTERRES
   125   64   65 1    
   126   64  130 1    
   127   65   66 1    
   128   65   69 1    
   129   65  131 1    
   130   66   67 am   BACKBONE|DICT|INTERRES
   131   66   68 2    
   132   67  132 1    
   133   67  133 1    
   134   69   70 1    
   135   69  134 1    
   136   69  135 1    
   137   70   71 1    
   138   71  136 1    
   139   71  137 1    
@<TRIPOS>SUBSTRUCTURE
     1 UNK         1 GROUP             0       ****    0 ROOT    
