@<TRIPOS>MOLECULE
3R137
137   139    1
SMALL
USER_CHARGES


@<TRIPOS>ATOM
      1 CA         29.0693    0.3530   -2.9060 C.3       0 UNK        -0.2020 
      2 C          28.6729   -0.5111   -1.7184 C.2       0 UNK         0.4855 
      3 O          28.4627    0.0125   -0.6245 O.2       0 UNK        -0.5197 
      4 N          28.5721   -1.8290   -1.9320 N.am      1 UNK        -0.4892 
      5 CA         28.2159   -2.8518   -0.9390 C.3       1 UNK         0.0835 
      6 C6         29.3146   -3.0528    0.1507 C.3       12 UNK        -0.0855 
      7 S7         29.8583   -4.7954    0.2313 S.3       12 UNK        -0.2931 
      8 C8         31.3522   -4.7871   -0.8247 C.3       12 UNK         0.0378 
      9 C9         31.1091   -4.1605   -2.1943 C.ar      12 UNK        -0.0802 
     10 C10        31.8171   -3.0175   -2.5789 C.ar      12 UNK        -0.0944 
     11 C11        31.5696   -2.4082   -3.8127 C.ar      12 UNK        -0.0787 
     12 C12        30.5884   -2.9360   -4.6575 C.ar      12 UNK        -0.0862 
     13 C13        29.8652   -4.0710   -4.2790 C.ar      12 UNK        -0.0733 
     14 C14        30.1554   -4.6993   -3.0637 C.ar      12 UNK        -0.0832 
     15 C15        28.7440   -4.6052   -5.1569 C.3       12 UNK         0.0240 
     16 S16        27.1302   -3.9470   -4.6207 S.3       12 UNK        -0.2522 
     17 C17        27.0357   -2.3597   -5.5187 C.3       12 UNK        -0.0967 
     18 CA         25.9152   -2.3740   -6.5892 C.3       5 UNK         0.0660 
     19 N          24.5827   -2.5403   -6.0031 N.am      5 UNK        -0.4015 
     20 C          23.5173   -3.0014   -6.6759 C.2       4 UNK         0.4946 
     21 O          23.5669   -3.3703   -7.8509 O.2       4 UNK        -0.5353 
     22 CA         22.1692   -3.0986   -5.9337 C.3       4 UNK         0.0277 
     23 CB         21.9002   -4.5513   -5.5066 C.3       4 UNK        -0.1981 
     24 N          22.0800   -2.2354   -4.7561 N.am      4 UNK        -0.4209 
     25 C          21.9473   -0.9020   -4.7853 C.2       3 UNK         0.4942 
     26 O          21.7717   -0.2565   -5.8191 O.2       3 UNK        -0.5208 
     27 CA         22.0340   -0.1556   -3.4366 C.3       3 UNK         0.0250 
     28 CB         20.6327    0.2734   -2.9705 C.3       3 UNK        -0.1990 
     29 N          22.6929   -0.9012   -2.3525 N.am      3 UNK        -0.4232 
     30 C          23.9517   -1.3587   -2.3875 C.2       2 UNK         0.4993 
     31 O          24.6953   -1.2320   -3.3650 O.2       2 UNK        -0.5286 
     32 CA         24.4437   -2.1351   -1.1599 C.3       2 UNK         0.0209 
     33 CB         23.7016   -3.4786   -1.0135 C.3       2 UNK        -0.1931 
     34 N          25.8685   -2.3744   -1.3461 N.am      2 UNK        -0.4546 
     35 C          26.7721   -2.6887   -0.4139 C.2       1 UNK         0.5154 
     36 O          26.4985   -2.8470    0.7777 O.2       1 UNK        -0.5181 
     37 C          25.9482   -1.0842   -7.4273 C.2       5 UNK         0.5014 
     38 O          25.4583   -0.0457   -6.9754 O.2       5 UNK        -0.5248 
     39 N          26.5665   -1.1535   -8.6135 N.am      6 UNK        -0.4434 
     40 CA         26.7595   -0.0270   -9.5314 C.3       6 UNK         0.0363 
     41 CB         26.9863   -0.5733  -10.9537 C.3       6 UNK        -0.1936 
     42 C          27.9127    0.8794   -9.0640 C.2       6 UNK         0.5081 
     43 O          28.9228    0.9997   -9.7578 O.2       6 UNK        -0.5248 
     44 N          27.7518    1.4853   -7.8808 N.am      7 UNK        -0.4718 
     45 CA         28.7548    2.2546   -7.1288 C.3       7 UNK         0.0273 
     46 CB         28.1267    2.6967   -5.7976 C.3       7 UNK        -0.1935 
     47 C          29.3764    3.4631   -7.8579 C.2       7 UNK         0.5018 
     48 O          30.4051    3.9694   -7.4099 O.2       7 UNK        -0.5186 
     49 N          28.7633    3.9002   -8.9658 N.am      8 UNK        -0.4240 
     50 CA         29.3225    4.8862   -9.8929 C.3       8 UNK         0.0235 
     51 CB         28.2176    5.3554  -10.8535 C.3       8 UNK        -0.2000 
     52 C          30.5341    4.3546  -10.6859 C.2       8 UNK         0.4941 
     53 O          31.3538    5.1621  -11.1259 O.2       8 UNK        -0.5273 
     54 N          30.6227    3.0282  -10.8616 N.am      9 UNK        -0.4262 
     55 CA         31.7048    2.3387  -11.5661 C.3       9 UNK         0.0264 
     56 CB         31.1389    1.6548  -12.8222 C.3       9 UNK        -0.1955 
     57 C          32.4026    1.3118  -10.6623 C.2       9 UNK         0.5031 
     58 O          33.6335    1.2377  -10.6769 O.2       9 UNK        -0.5390 
     59 N          31.6231    0.5354   -9.8949 N.am      10 UNK        -0.4204 
     60 CA         32.1118   -0.4838   -8.9661 C.3       10 UNK         0.0237 
     61 CB         30.9283   -1.2931   -8.4087 C.3       10 UNK        -0.1985 
     62 C          32.9225    0.1521   -7.8287 C.2       10 UNK         0.4970 
     63 O          32.4404    1.0917   -7.1938 O.2       10 UNK        -0.4914 
     64 N          34.1325   -0.3747   -7.6124 N.am      11 UNK        -0.4285 
     65 CA         35.1390    0.1246   -6.6593 C.3       11 UNK         0.1007 
     66 C          35.7671    1.5001   -7.0460 C.2       11 UNK         0.5703 
     67 N          35.5654    2.0134   -8.2554 N.am      11 UNK        -0.7361 
     68 O          36.4851    2.0999   -6.2490 O.2       11 UNK        -0.4986 
     69 C69        34.6746    0.0757   -5.1730 C.3       12 UNK        -0.0947 
     70 S70        34.0580   -1.5668   -4.6687 S.3       12 UNK        -0.2240 
     71 C71        32.3439   -1.1627   -4.2144 C.3       12 UNK         0.0194 
     72 H72        30.0626    0.7723   -2.7494 H         1 UNK         0.0906 
     73 H73        29.0797   -0.2102   -3.8389 H         1 UNK         0.0906 
     74 H74        28.3658    1.1776   -3.0143 H         1 UNK         0.0906 
     75 H75        28.7926   -2.1978   -2.8476 H         1 UNK         0.3140 
     76 H76        28.1474   -3.7680   -1.5251 H         1 UNK         0.1085 
     77 H77        28.9828   -2.7394    1.1416 H         1 UNK         0.0836 
     78 H78        30.1885   -2.4327   -0.0543 H         1 UNK         0.0836 
     79 H79        31.6979   -5.8131   -0.9582 H         1 UNK         0.0731 
     80 H80        32.1493   -4.2621   -0.2959 H         1 UNK         0.0731 
     81 H81        32.5601   -2.5938   -1.9169 H         1 UNK         0.1312 
     82 H82        30.3775   -2.4543   -5.6013 H         1 UNK         0.1406 
     83 H83        29.5972   -5.5769   -2.7655 H         1 UNK         0.1631 
     84 H84        28.7165   -5.6940   -5.0918 H         1 UNK         0.0717 
     85 H85        28.9208   -4.3699   -6.2076 H         1 UNK         0.0717 
     86 H86        26.8705   -1.5583   -4.7965 H         1 UNK         0.0934 
     87 H87        28.0012   -2.1479   -5.9805 H         1 UNK         0.0934 
     88 H88        26.1020   -3.2198   -7.2551 H         1 UNK         0.0739 
     89 H89        24.4707   -2.1817   -5.0596 H         1 UNK         0.3093 
     90 H90        21.3886   -2.7987   -6.6363 H         1 UNK         0.0818 
     91 H91        22.6465   -4.9086   -4.7957 H         1 UNK         0.0819 
     92 H92        20.9178   -4.6552   -5.0455 H         1 UNK         0.0819 
     93 H93        21.9239   -5.2216   -6.3671 H         1 UNK         0.0819 
     94 H94        22.2014   -2.6784   -3.8577 H         1 UNK         0.3041 
     95 H95        22.6254    0.7452   -3.6144 H         1 UNK         0.0784 
     96 H96        20.1262    0.8579   -3.7401 H         1 UNK         0.0793 
     97 H97        20.0009   -0.5872   -2.7470 H         1 UNK         0.0793 
     98 H98        20.6834    0.8960   -2.0771 H         1 UNK         0.0793 
     99 H99        22.1426   -1.0581   -1.5198 H         1 UNK         0.3024 
    100 H100       24.2944   -1.5185   -0.2708 H         1 UNK         0.1171 
    101 H101       23.8291   -4.1063   -1.8967 H         1 UNK         0.0786 
    102 H102       22.6313   -3.3296   -0.8672 H         1 UNK         0.0786 
    103 H103       24.0637   -4.0408   -0.1526 H         1 UNK         0.0786 
    104 H104       26.1798   -2.1987   -2.2950 H         1 UNK         0.2977 
    105 H105       26.9661   -2.0350   -8.9027 H         1 UNK         0.3127 
    106 H106       25.8512    0.5795   -9.5475 H         1 UNK         0.0770 
    107 H107       27.8805   -1.1953  -11.0120 H         1 UNK         0.0814 
    108 H108       27.1101    0.2410  -11.6691 H         1 UNK         0.0814 
    109 H109       26.1385   -1.1705  -11.2896 H         1 UNK         0.0814 
    110 H110       26.8825    1.2868   -7.3931 H         1 UNK         0.2983 
    111 H111       29.5790    1.5732   -6.9074 H         1 UNK         0.0947 
    112 H112       27.3119    3.4047   -5.9542 H         1 UNK         0.0806 
    113 H113       28.8646    3.1823   -5.1572 H         1 UNK         0.0806 
    114 H114       27.7270    1.8461   -5.2461 H         1 UNK         0.0806 
    115 H115       27.9151    3.4318   -9.2488 H         1 UNK         0.3000 
    116 H116       29.6617    5.7466   -9.3118 H         1 UNK         0.0850 
    117 H117       28.5953    6.1141  -11.5406 H         1 UNK         0.0810 
    118 H118       27.3818    5.7990  -10.3120 H         1 UNK         0.0810 
    119 H119       27.8306    4.5334  -11.4573 H         1 UNK         0.0810 
    120 H120       29.9085    2.4358  -10.4456 H         1 UNK         0.3040 
    121 H121       32.4666    3.0533  -11.8848 H         1 UNK         0.0766 
    122 H122       30.7139    2.3854  -13.5105 H         1 UNK         0.0812 
    123 H123       30.3572    0.9352  -12.5745 H         1 UNK         0.0812 
    124 H124       31.9208    1.1180  -13.3612 H         1 UNK         0.0812 
    125 H125       30.6135    0.6771   -9.9097 H         1 UNK         0.3205 
    126 H126       32.7525   -1.1627   -9.5329 H         1 UNK         0.0754 
    127 H127       31.2844   -2.1231   -7.7978 H         1 UNK         0.0769 
    128 H128       30.3225   -1.7168   -9.2100 H         1 UNK         0.0769 
    129 H129       30.2770   -0.6812   -7.7838 H         1 UNK         0.0769 
    130 H130       34.4388   -1.1399   -8.1952 H         1 UNK         0.2981 
    131 H131       35.9695   -0.5764   -6.7474 H         1 UNK         0.0541 
    132 H132       34.9741    1.5476   -8.9317 H         1 UNK         0.3459 
    133 H133       35.9926    2.8953   -8.4890 H         1 UNK         0.3459 
    134 H134       35.5064    0.3200   -4.5102 H         1 UNK         0.0612 
    135 H135       33.9126    0.8333   -4.9839 H         1 UNK         0.0612 
    136 H136       32.3485   -0.4530   -3.3859 H         1 UNK         0.0624 
    137 H137       31.8555   -0.6612   -5.0510 H         1 UNK         0.0624 
@<TRIPOS>BOND
     1    1    2 1    
     2    1   72 1    
     3    1   73 1    
     4    1   74 1    
     5    2    3 2    
     6    2    4 am   BACKBONE|DICT|INTERRES
     7    4    5 1    
     8    4   75 1    
     9    5    6 1    
    10    5   35 1    
    11    5   76 1    
    12    6    7 1    
    13    6   77 1    
    14    6   78 1    
    15    7    8 1    
    16    8    9 1    
    17    8   79 1    
    18    8   80 1    
    19    9   10 ar   
    20    9   14 ar   
    21   10   11 ar   
    22   10   81 1    
    23   11   12 ar   
    24   11   71 1    
    25   12   13 ar   
    26   12   82 1    
    27   13   14 ar   
    28   13   15 1    
    29   14   83 1    
    30   15   16 1    
    31   15   84 1    
    32   15   85 1    
    33   16   17 1    
    34   17   18 1    
    35   17   86 1    
    36   17   87 1    
    37   18   19 1    
    38   18   37 1    
    39   18   88 1    
    40   19   20 am   BACKBONE|DICT|INTERRES
    41   19   89 1    
    42   20   21 2    
    43   20   22 1    
    44   22   23 1    
    45   22   24 1    
    46   22   90 1    
    47   23   91 1    
    48   23   92 1    
    49   23   93 1    
    50   24   25 am   BACKBONE|DICT|INTERRES
    51   24   94 1    
    52   25   26 2    
    53   25   27 1    
    54   27   28 1    
    55   27   29 1    
    56   27   95 1    
    57   28   96 1    
    58   28   97 1    
    59   28   98 1    
    60   29   30 am   BACKBONE|DICT|INTERRES
    61   29   99 1    
    62   30   31 2    
    63   30   32 1    
    64   32   33 1    
    65   32   34 1    
    66   32  100 1    
    67   33  101 1    
    68   33  102 1    
    69   33  103 1    
    70   34   35 am   BACKBONE|DICT|INTERRES
    71   34  104 1    
    72   35   36 2    
    73   37   38 2    
    74   37   39 am   BACKBONE|DICT|INTERRES
    75   39   40 1    
    76   39  105 1    
    77   40   41 1    
    78   40   42 1    
    79   40  106 1    
    80   41  107 1    
    81   41  108 1    
    82   41  109 1    
    83   42   43 2    
    84   42   44 am   BACKBONE|DICT|INTERRES
    85   44   45 1    
    86   44  110 1    
    87   45   46 1    
    88   45   47 1    
    89   45  111 1    
    90   46  112 1    
    91   46  113 1    
    92   46  114 1    
    93   47   48 2    
    94   47   49 am   BACKBONE|DICT|INTERRES
    95   49   50 1    
    96   49  115 1    
    97   50   51 1    
    98   50   52 1    
    99   50  116 1    
   100   51  117 1    
   101   51  118 1    
   102   51  119 1    
   103   52   53 2    
   104   52   54 am   BACKBONE|DICT|INTERRES
   105   54   55 1    
   106   54  120 1    
   107   55   56 1    
   108   55   57 1    
   109   55  121 1    
   110   56  122 1    
   111   56  123 1    
   112   56  124 1    
   113   57   58 2    
   114   57   59 am   BACKBONE|DICT|INTERRES
   115   59   60 1    
   116   59  125 1    
   117   60   61 1    
   118   60   62 1    
   119   60  126 1    
   120   61  127 1    
   121   61  128 1    
   122   61  129 1    
   123   62   63 2    
   124   62   64 am   BACKBONE|DICT|INTERRES
   125   64   65 1    
   126   64  130 1    
   127   65   66 1    
   128   65   69 1    
   129   65  131 1    
   130   66   67 am   BACKBONE|DICT|INTERRES
   131   66   68 2    
   132   67  132 1    
   133   67  133 1    
   134   69   70 1    
   135   69  134 1    
   136   69  135 1    
   137   70   71 1    
   138   71  136 1    
   139   71  137 1    
@<TRIPOS>SUBSTRUCTURE
     1 UNK         1 GROUP             0       ****    0 ROOT    
