@<TRIPOS>MOLECULE
3R137
137   139    1
SMALL
USER_CHARGES


@<TRIPOS>ATOM
      1 CA         27.1505   -7.8409   -5.1397 C.3       0 UNK        -0.2020 
      2 C          27.5486   -7.0638   -3.8938 C.2       0 UNK         0.4855 
      3 O          28.3627   -7.5443   -3.1052 O.2       0 UNK        -0.5197 
      4 N          26.9795   -5.8693   -3.7101 N.am      1 UNK        -0.4892 
      5 CA         27.1910   -4.9818   -2.5684 C.3       1 UNK         0.0835 
      6 C6         28.5649   -4.2608   -2.6211 C.3       12 UNK        -0.0855 
      7 S7         29.2562   -3.9514   -0.9648 S.3       12 UNK        -0.2931 
      8 C8         30.9643   -3.4912   -1.4015 C.3       12 UNK         0.0378 
      9 C9         31.0038   -2.1939   -2.1962 C.ar      12 UNK        -0.0802 
     10 C10        31.1657   -2.2144   -3.5855 C.ar      12 UNK        -0.0944 
     11 C11        31.1668   -1.0247   -4.3202 C.ar      12 UNK        -0.0787 
     12 C12        31.0298    0.1919   -3.6427 C.ar      12 UNK        -0.0862 
     13 C13        30.8332    0.2256   -2.2591 C.ar      12 UNK        -0.0733 
     14 C14        30.8384   -0.9720   -1.5400 C.ar      12 UNK        -0.0832 
     15 C15        30.5737    1.5419   -1.5318 C.3       12 UNK         0.0240 
     16 S16        29.3920    2.6484   -2.3838 S.3       12 UNK        -0.2522 
     17 C17        27.9997    1.5425   -2.8163 C.3       12 UNK        -0.0967 
     18 CA         27.8344    1.3952   -4.3534 C.3       5 UNK         0.0660 
     19 N          27.1474    0.1558   -4.7240 N.am      5 UNK        -0.4015 
     20 C          27.1665   -0.3853   -5.9542 C.2       4 UNK         0.4946 
     21 O          27.8514    0.0492   -6.8817 O.2       4 UNK        -0.5353 
     22 CA         26.2418   -1.5904   -6.2232 C.3       4 UNK         0.0277 
     23 CB         27.0179   -2.9091   -6.1012 C.3       4 UNK        -0.1981 
     24 N          25.0613   -1.6319   -5.3546 N.am      4 UNK        -0.4209 
     25 C          24.1160   -0.6800   -5.3220 C.2       3 UNK         0.4942 
     26 O          24.0897    0.2710   -6.1023 O.2       3 UNK        -0.5208 
     27 CA         23.0643   -0.7443   -4.1989 C.3       3 UNK         0.0250 
     28 CB         21.7475   -1.3274   -4.7342 C.3       3 UNK        -0.1990 
     29 N          23.4803   -1.4988   -3.0114 N.am      3 UNK        -0.4232 
     30 C          24.5703   -1.2691   -2.2633 C.2       2 UNK         0.4993 
     31 O          25.3732   -0.3610   -2.4846 O.2       2 UNK        -0.5286 
     32 CA         24.8485   -2.2557   -1.1123 C.3       2 UNK         0.0209 
     33 CB         23.5906   -3.0120   -0.6278 C.3       2 UNK        -0.1931 
     34 N          25.9154   -3.2154   -1.4353 N.am      2 UNK        -0.4546 
     35 C          26.0050   -4.0002   -2.5196 C.2       1 UNK         0.5154 
     36 O          25.2057   -3.9702   -3.4630 O.2       1 UNK        -0.5181 
     37 C          27.1389    2.6244   -4.9696 C.2       5 UNK         0.5014 
     38 O          27.8201    3.5022   -5.4997 O.2       5 UNK        -0.5248 
     39 N          25.7978    2.6522   -4.9225 N.am      6 UNK        -0.4434 
     40 CA         24.9700    3.7057   -5.5185 C.3       6 UNK         0.0363 
     41 CB         23.5198    3.5710   -5.0262 C.3       6 UNK        -0.1936 
     42 C          25.0330    3.7001   -7.0553 C.2       6 UNK         0.5081 
     43 O          25.0838    4.7683   -7.6652 O.2       6 UNK        -0.5248 
     44 N          25.0651    2.4990   -7.6487 N.am      7 UNK        -0.4718 
     45 CA         25.2779    2.2812   -9.0821 C.3       7 UNK         0.0273 
     46 CB         24.8912    0.8346   -9.4288 C.3       7 UNK        -0.1935 
     47 C          26.7223    2.5658   -9.5379 C.2       7 UNK         0.5018 
     48 O          26.9314    2.7995  -10.7287 O.2       7 UNK        -0.5186 
     49 N          27.6767    2.5246   -8.5942 N.am      8 UNK        -0.4240 
     50 CA         29.1277    2.6544   -8.7649 C.3       8 UNK         0.0235 
     51 CB         29.5061    4.0840   -9.2051 C.3       8 UNK        -0.2000 
     52 C          29.6859    1.5628   -9.6945 C.2       8 UNK         0.4941 
     53 O          30.3190    1.8687  -10.7085 O.2       8 UNK        -0.5273 
     54 N          29.4077    0.2995   -9.3451 N.am      9 UNK        -0.4262 
     55 CA         29.7318   -0.9039  -10.1191 C.3       9 UNK         0.0264 
     56 CB         28.8847   -2.0691   -9.5775 C.3       9 UNK        -0.1955 
     57 C          31.2398   -1.2395  -10.1441 C.2       9 UNK         0.5031 
     58 O          31.6394   -2.3114   -9.6823 O.2       9 UNK        -0.5390 
     59 N          32.0498   -0.3127  -10.6753 N.am      10 UNK        -0.4204 
     60 CA         33.5145   -0.3140  -10.8217 C.3       10 UNK         0.0237 
     61 CB         34.0022   -1.4829  -11.7009 C.3       10 UNK        -0.1985 
     62 C          34.2713   -0.2583   -9.4828 C.2       10 UNK         0.4970 
     63 O          35.0958    0.6363   -9.2932 O.2       10 UNK        -0.4914 
     64 N          33.9520   -1.1933   -8.5824 N.am      11 UNK        -0.4285 
     65 CA         34.3749   -1.2552   -7.1738 C.3       11 UNK         0.1007 
     66 C          35.8946   -1.5119   -6.9430 C.2       11 UNK         0.5703 
     67 N          36.6427   -1.9769   -7.9365 N.am      11 UNK        -0.7361 
     68 O          36.4010   -1.3213   -5.8394 O.2       11 UNK        -0.4986 
     69 C69        33.8235   -0.0728   -6.3195 C.3       12 UNK        -0.0947 
     70 S70        32.0674    0.3233   -6.6352 S.3       12 UNK        -0.2240 
     71 C71        31.2209   -1.0849   -5.8449 C.3       12 UNK         0.0194 
     72 H72        26.7038   -8.7948   -4.8606 H         1 UNK         0.0906 
     73 H73        26.4306   -7.2943   -5.7487 H         1 UNK         0.0906 
     74 H74        28.0288   -8.0420   -5.7526 H         1 UNK         0.0906 
     75 H75        26.2598   -5.5308   -4.3396 H         1 UNK         0.3140 
     76 H76        27.1321   -5.5999   -1.6693 H         1 UNK         0.1085 
     77 H77        28.5093   -3.3154   -3.1621 H         1 UNK         0.0836 
     78 H78        29.2919   -4.8678   -3.1629 H         1 UNK         0.0836 
     79 H79        31.4315   -4.3037   -1.9603 H         1 UNK         0.0731 
     80 H80        31.5467   -3.3767   -0.4860 H         1 UNK         0.0731 
     81 H81        31.2597   -3.1619   -4.0986 H         1 UNK         0.1312 
     82 H82        31.0233    1.1194   -4.1966 H         1 UNK         0.1406 
     83 H83        30.6856   -0.9609   -0.4690 H         1 UNK         0.1631 
     84 H84        31.5208    2.0680   -1.4072 H         1 UNK         0.0717 
     85 H85        30.1914    1.3527   -0.5275 H         1 UNK         0.0717 
     86 H86        28.1677    0.5654   -2.3612 H         1 UNK         0.0934 
     87 H87        27.0869    1.9182   -2.3493 H         1 UNK         0.0934 
     88 H88        28.8255    1.3409   -4.8051 H         1 UNK         0.0739 
     89 H89        26.5398   -0.2418   -4.0124 H         1 UNK         0.3093 
     90 H90        25.8881   -1.5039   -7.2517 H         1 UNK         0.0818 
     91 H91        27.8821   -2.9216   -6.7638 H         1 UNK         0.0819 
     92 H92        26.3949   -3.7637   -6.3649 H         1 UNK         0.0819 
     93 H93        27.3879   -3.0614   -5.0905 H         1 UNK         0.0819 
     94 H94        25.0073   -2.3945   -4.6849 H         1 UNK         0.3041 
     95 H95        22.8785    0.2827   -3.8784 H         1 UNK         0.0784 
     96 H96        21.3980   -0.7688   -5.6040 H         1 UNK         0.0793 
     97 H97        21.8624   -2.3683   -5.0397 H         1 UNK         0.0793 
     98 H98        20.9576   -1.2811   -3.9842 H         1 UNK         0.0793 
     99 H99        22.9163   -2.3021   -2.7738 H         1 UNK         0.3024 
    100 H100       25.2100   -1.6481   -0.2807 H         1 UNK         0.1171 
    101 H101       23.8050   -3.5792    0.2782 H         1 UNK         0.0786 
    102 H102       22.7820   -2.3211   -0.3843 H         1 UNK         0.0786 
    103 H103       23.2163   -3.7174   -1.3707 H         1 UNK         0.0786 
    104 H104       26.6643   -3.2750   -0.7572 H         1 UNK         0.2977 
    105 H105       25.3098    1.8740   -4.5029 H         1 UNK         0.3127 
    106 H106       25.3561    4.6682   -5.1755 H         1 UNK         0.0770 
    107 H107       23.0677    2.6300   -5.3404 H         1 UNK         0.0814 
    108 H108       22.9002    4.3758   -5.4239 H         1 UNK         0.0814 
    109 H109       23.4619    3.6261   -3.9391 H         1 UNK         0.0814 
    110 H110       24.9180    1.6720   -7.0738 H         1 UNK         0.2983 
    111 H111       24.6189    2.9568   -9.6319 H         1 UNK         0.0947 
    112 H112       24.9612    0.6588  -10.5031 H         1 UNK         0.0806 
    113 H113       23.8672    0.6118   -9.1283 H         1 UNK         0.0806 
    114 H114       25.5492    0.1169   -8.9388 H         1 UNK         0.0806 
    115 H115       27.3802    2.2888   -7.6565 H         1 UNK         0.3000 
    116 H116       29.5705    2.4817   -7.7822 H         1 UNK         0.0850 
    117 H117       30.5893    4.2042   -9.2445 H         1 UNK         0.0810 
    118 H118       29.1218    4.8260   -8.5051 H         1 UNK         0.0810 
    119 H119       29.1164    4.3225  -10.1952 H         1 UNK         0.0810 
    120 H120       28.8910    0.1539   -8.4792 H         1 UNK         0.3040 
    121 H121       29.4280   -0.7279  -11.1530 H         1 UNK         0.0766 
    122 H122       27.8208   -1.8309   -9.5873 H         1 UNK         0.0812 
    123 H123       29.1662   -2.3155   -8.5540 H         1 UNK         0.0812 
    124 H124       29.0232   -2.9678  -10.1797 H         1 UNK         0.0812 
    125 H125       31.5909    0.5612  -10.9324 H         1 UNK         0.3205 
    126 H126       33.7525    0.6098  -11.3515 H         1 UNK         0.0754 
    127 H127       35.0780   -1.4189  -11.8696 H         1 UNK         0.0769 
    128 H128       33.5203   -1.4686  -12.6785 H         1 UNK         0.0769 
    129 H129       33.8036   -2.4534  -11.2456 H         1 UNK         0.0769 
    130 H130       33.2261   -1.8523   -8.8552 H         1 UNK         0.2981 
    131 H131       33.9060   -2.1619   -6.7930 H         1 UNK         0.0541 
    132 H132       36.2368   -2.1437   -8.8431 H         1 UNK         0.3459 
    133 H133       37.6226   -2.1515   -7.7787 H         1 UNK         0.3459 
    134 H134       33.9421   -0.2816   -5.2548 H         1 UNK         0.0612 
    135 H135       34.4008    0.8318   -6.5171 H         1 UNK         0.0612 
    136 H136       30.1964   -1.1091   -6.2152 H         1 UNK         0.0624 
    137 H137       31.6808   -2.0148   -6.1793 H         1 UNK         0.0624 
@<TRIPOS>BOND
     1    1    2 1    
     2    1   72 1    
     3    1   73 1    
     4    1   74 1    
     5    2    3 2    
     6    2    4 am   BACKBONE|DICT|INTERRES
     7    4    5 1    
     8    4   75 1    
     9    5    6 1    
    10    5   35 1    
    11    5   76 1    
    12    6    7 1    
    13    6   77 1    
    14    6   78 1    
    15    7    8 1    
    16    8    9 1    
    17    8   79 1    
    18    8   80 1    
    19    9   10 ar   
    20    9   14 ar   
    21   10   11 ar   
    22   10   81 1    
    23   11   12 ar   
    24   11   71 1    
    25   12   13 ar   
    26   12   82 1    
    27   13   14 ar   
    28   13   15 1    
    29   14   83 1    
    30   15   16 1    
    31   15   84 1    
    32   15   85 1    
    33   16   17 1    
    34   17   18 1    
    35   17   86 1    
    36   17   87 1    
    37   18   19 1    
    38   18   37 1    
    39   18   88 1    
    40   19   20 am   BACKBONE|DICT|INTERRES
    41   19   89 1    
    42   20   21 2    
    43   20   22 1    
    44   22   23 1    
    45   22   24 1    
    46   22   90 1    
    47   23   91 1    
    48   23   92 1    
    49   23   93 1    
    50   24   25 am   BACKBONE|DICT|INTERRES
    51   24   94 1    
    52   25   26 2    
    53   25   27 1    
    54   27   28 1    
    55   27   29 1    
    56   27   95 1    
    57   28   96 1    
    58   28   97 1    
    59   28   98 1    
    60   29   30 am   BACKBONE|DICT|INTERRES
    61   29   99 1    
    62   30   31 2    
    63   30   32 1    
    64   32   33 1    
    65   32   34 1    
    66   32  100 1    
    67   33  101 1    
    68   33  102 1    
    69   33  103 1    
    70   34   35 am   BACKBONE|DICT|INTERRES
    71   34  104 1    
    72   35   36 2    
    73   37   38 2    
    74   37   39 am   BACKBONE|DICT|INTERRES
    75   39   40 1    
    76   39  105 1    
    77   40   41 1    
    78   40   42 1    
    79   40  106 1    
    80   41  107 1    
    81   41  108 1    
    82   41  109 1    
    83   42   43 2    
    84   42   44 am   BACKBONE|DICT|INTERRES
    85   44   45 1    
    86   44  110 1    
    87   45   46 1    
    88   45   47 1    
    89   45  111 1    
    90   46  112 1    
    91   46  113 1    
    92   46  114 1    
    93   47   48 2    
    94   47   49 am   BACKBONE|DICT|INTERRES
    95   49   50 1    
    96   49  115 1    
    97   50   51 1    
    98   50   52 1    
    99   50  116 1    
   100   51  117 1    
   101   51  118 1    
   102   51  119 1    
   103   52   53 2    
   104   52   54 am   BACKBONE|DICT|INTERRES
   105   54   55 1    
   106   54  120 1    
   107   55   56 1    
   108   55   57 1    
   109   55  121 1    
   110   56  122 1    
   111   56  123 1    
   112   56  124 1    
   113   57   58 2    
   114   57   59 am   BACKBONE|DICT|INTERRES
   115   59   60 1    
   116   59  125 1    
   117   60   61 1    
   118   60   62 1    
   119   60  126 1    
   120   61  127 1    
   121   61  128 1    
   122   61  129 1    
   123   62   63 2    
   124   62   64 am   BACKBONE|DICT|INTERRES
   125   64   65 1    
   126   64  130 1    
   127   65   66 1    
   128   65   69 1    
   129   65  131 1    
   130   66   67 am   BACKBONE|DICT|INTERRES
   131   66   68 2    
   132   67  132 1    
   133   67  133 1    
   134   69   70 1    
   135   69  134 1    
   136   69  135 1    
   137   70   71 1    
   138   71  136 1    
   139   71  137 1    
@<TRIPOS>SUBSTRUCTURE
     1 UNK         1 GROUP             0       ****    0 ROOT    
