@<TRIPOS>MOLECULE
3R137
137   139    1
SMALL
USER_CHARGES


@<TRIPOS>ATOM
      1 CA         23.1290   -3.2990   -7.5525 C.3       0 UNK        -0.2020 
      2 C          23.5568   -4.2779   -6.4708 C.2       0 UNK         0.4855 
      3 O          22.7444   -5.0874   -6.0245 O.2       0 UNK        -0.5197 
      4 N          24.8189   -4.2053   -6.0263 N.am      1 UNK        -0.4892 
      5 CA         25.4419   -5.0923   -5.0323 C.3       1 UNK         0.0835 
      6 C6         26.9809   -5.1496   -5.2271 C.3       12 UNK        -0.0855 
      7 S7         27.8711   -3.5705   -4.9476 S.3       12 UNK        -0.2931 
      8 C8         29.0318   -4.1131   -3.6504 C.3       12 UNK         0.0378 
      9 C9         30.0837   -3.0608   -3.3400 C.ar      12 UNK        -0.0802 
     10 C10        31.3536   -3.1397   -3.9205 C.ar      12 UNK        -0.0944 
     11 C11        32.3348   -2.1924   -3.6123 C.ar      12 UNK        -0.0787 
     12 C12        32.0329   -1.1496   -2.7329 C.ar      12 UNK        -0.0862 
     13 C13        30.7624   -1.0507   -2.1602 C.ar      12 UNK        -0.0733 
     14 C14        29.7986   -2.0232   -2.4493 C.ar      12 UNK        -0.0832 
     15 C15        30.4280    0.1198   -1.2481 C.3       12 UNK         0.0240 
     16 S16        29.0092    1.0798   -1.8645 S.3       12 UNK        -0.2522 
     17 C17        29.5985    1.7011   -3.4820 C.3       12 UNK        -0.0967 
     18 CA         29.2839    0.7508   -4.6808 C.3       5 UNK         0.0660 
     19 N          27.9001    0.2683   -4.6863 N.am      5 UNK        -0.4015 
     20 C          26.8006    0.9907   -4.9461 C.2       4 UNK         0.4946 
     21 O          26.8150    2.1640   -5.3222 O.2       4 UNK        -0.5353 
     22 CA         25.4541    0.2815   -4.7317 C.3       4 UNK         0.0277 
     23 CB         25.0825   -0.5631   -5.9580 C.3       4 UNK        -0.1981 
     24 N          25.4610   -0.5690   -3.5379 N.am      4 UNK        -0.4209 
     25 C          25.4229   -0.1066   -2.2790 C.2       3 UNK         0.4942 
     26 O          25.3050    1.0866   -1.9947 O.2       3 UNK        -0.5208 
     27 CA         25.5405   -1.1596   -1.1568 C.3       3 UNK         0.0250 
     28 CB         25.1005   -0.6245    0.2227 C.3       3 UNK        -0.1990 
     29 N          24.8594   -2.4225   -1.4723 N.am      3 UNK        -0.4232 
     30 C          23.5530   -2.6104   -1.7125 C.2       2 UNK         0.4993 
     31 O          22.7084   -1.7136   -1.6814 O.2       2 UNK        -0.5286 
     32 CA         23.1392   -4.0459   -2.0922 C.3       2 UNK         0.0209 
     33 CB         21.6112   -4.2201   -2.1801 C.3       2 UNK        -0.1931 
     34 N          23.7314   -4.4479   -3.3704 N.am      2 UNK        -0.4546 
     35 C          25.0055   -4.8051   -3.5721 C.2       1 UNK         0.5154 
     36 O          25.8195   -4.8843   -2.6495 O.2       1 UNK        -0.5181 
     37 C          29.6587    1.3250   -6.0635 C.2       5 UNK         0.5014 
     38 O          29.7072    0.5703   -7.0375 O.2       5 UNK        -0.5248 
     39 N          29.8703    2.6447   -6.1530 N.am      6 UNK        -0.4434 
     40 CA         30.1487    3.3771   -7.3901 C.3       6 UNK         0.0363 
     41 CB         30.4102    4.8528   -7.0501 C.3       6 UNK        -0.1936 
     42 C          29.0476    3.2689   -8.4627 C.2       6 UNK         0.5081 
     43 O          29.3571    3.4147   -9.6446 O.2       6 UNK        -0.5248 
     44 N          27.7974    3.0128   -8.0512 N.am      7 UNK        -0.4718 
     45 CA         26.6402    2.9314   -8.9456 C.3       7 UNK         0.0273 
     46 CB         25.3576    3.1980   -8.1395 C.3       7 UNK        -0.1935 
     47 C          26.5255    1.6060   -9.7219 C.2       7 UNK         0.5018 
     48 O          25.7154    1.5484  -10.6487 O.2       7 UNK        -0.5186 
     49 N          27.2954    0.5710   -9.3494 N.am      8 UNK        -0.4240 
     50 CA         27.2423   -0.7431  -10.0023 C.3       8 UNK         0.0235 
     51 CB         26.2334   -1.6569   -9.2872 C.3       8 UNK        -0.2000 
     52 C          28.6152   -1.4140  -10.1018 C.2       8 UNK         0.4941 
     53 O          29.0005   -1.8316  -11.1941 O.2       8 UNK        -0.5273 
     54 N          29.3295   -1.5170   -8.9735 N.am      9 UNK        -0.4262 
     55 CA         30.6457   -2.1570   -8.8906 C.3       9 UNK         0.0264 
     56 CB         30.8741   -2.6398   -7.4488 C.3       9 UNK        -0.1955 
     57 C          31.7938   -1.2435   -9.3606 C.2       9 UNK         0.5031 
     58 O          32.8900   -1.7461   -9.6104 O.2       9 UNK        -0.5390 
     59 N          31.5215    0.0668   -9.4741 N.am      10 UNK        -0.4204 
     60 CA         32.4330    1.1451   -9.8828 C.3       10 UNK         0.0237 
     61 CB         32.9501    0.9325  -11.3221 C.3       10 UNK        -0.1985 
     62 C          33.5636    1.3965   -8.8649 C.2       10 UNK         0.4970 
     63 O          34.6466    1.8444   -9.2439 O.2       10 UNK        -0.4914 
     64 N          33.2798    1.1210   -7.5864 N.am      11 UNK        -0.4285 
     65 CA         34.2080    1.2542   -6.4523 C.3       11 UNK         0.1007 
     66 C          34.4285    2.7117   -5.9473 C.2       11 UNK         0.5703 
     67 N          33.8244    3.7302   -6.5466 N.am      11 UNK        -0.7361 
     68 O          35.1764    2.9261   -4.9963 O.2       11 UNK        -0.4986 
     69 C69        33.8029    0.3024   -5.2974 C.3       12 UNK        -0.0947 
     70 S70        33.8418   -1.4458   -5.8138 S.3       12 UNK        -0.2240 
     71 C71        33.7264   -2.3035   -4.2162 C.3       12 UNK         0.0194 
     72 H72        23.9431   -2.6430   -7.8530 H         1 UNK         0.0906 
     73 H73        22.7882   -3.8407   -8.4345 H         1 UNK         0.0906 
     74 H74        22.3074   -2.6789   -7.1948 H         1 UNK         0.0906 
     75 H75        25.4444   -3.5176   -6.4191 H         1 UNK         0.3140 
     76 H76        25.0733   -6.1009   -5.2338 H         1 UNK         0.1085 
     77 H77        27.2028   -5.4729   -6.2454 H         1 UNK         0.0836 
     78 H78        27.3987   -5.9312   -4.5898 H         1 UNK         0.0836 
     79 H79        29.5206   -5.0360   -3.9668 H         1 UNK         0.0731 
     80 H80        28.4755   -4.3575   -2.7444 H         1 UNK         0.0731 
     81 H81        31.5826   -3.9435   -4.6068 H         1 UNK         0.1312 
     82 H82        32.7873   -0.4098   -2.5028 H         1 UNK         0.1406 
     83 H83        28.8184   -1.9573   -1.9985 H         1 UNK         0.1631 
     84 H84        31.2834    0.7867   -1.1297 H         1 UNK         0.0717 
     85 H85        30.1921   -0.2610   -0.2536 H         1 UNK         0.0717 
     86 H86        29.1124    2.6686   -3.6178 H         1 UNK         0.0934 
     87 H87        30.6704    1.8984   -3.4186 H         1 UNK         0.0934 
     88 H88        29.9054   -0.1376   -4.5760 H         1 UNK         0.0739 
     89 H89        27.7843   -0.6995   -4.4254 H         1 UNK         0.3093 
     90 H90        24.6906    1.0522   -4.6041 H         1 UNK         0.0818 
     91 H91        25.0842    0.0389   -6.8674 H         1 UNK         0.0819 
     92 H92        25.7857   -1.3817   -6.1041 H         1 UNK         0.0819 
     93 H93        24.0838   -0.9866   -5.8523 H         1 UNK         0.0819 
     94 H94        25.5321   -1.5654   -3.6795 H         1 UNK         0.3041 
     95 H95        26.6024   -1.3981   -1.0859 H         1 UNK         0.0784 
     96 H96        25.7034    0.2351    0.5184 H         1 UNK         0.0793 
     97 H97        24.0581   -0.3042    0.2195 H         1 UNK         0.0793 
     98 H98        25.2171   -1.3817    0.9979 H         1 UNK         0.0793 
     99 H99        25.4593   -3.2355   -1.5871 H         1 UNK         0.3024 
    100 H100       23.5067   -4.7100   -1.3061 H         1 UNK         0.1171 
    101 H101       21.1313   -3.9446   -1.2399 H         1 UNK         0.0786 
    102 H102       21.1773   -3.5978   -2.9640 H         1 UNK         0.0786 
    103 H103       21.3420   -5.2558   -2.3883 H         1 UNK         0.0786 
    104 H104       23.1237   -4.4422   -4.1835 H         1 UNK         0.2977 
    105 H105       29.7634    3.2041   -5.3198 H         1 UNK         0.3127 
    106 H106       31.0595    2.9599   -7.8174 H         1 UNK         0.0770 
    107 H107       29.5262    5.3302   -6.6250 H         1 UNK         0.0814 
    108 H108       30.6856    5.4163   -7.9428 H         1 UNK         0.0814 
    109 H109       31.2253    4.9625   -6.3351 H         1 UNK         0.0814 
    110 H110       27.6166    2.8745   -7.0604 H         1 UNK         0.2983 
    111 H111       26.7315    3.7245   -9.6914 H         1 UNK         0.0947 
    112 H112       24.4862    3.2407   -8.7944 H         1 UNK         0.0806 
    113 H113       25.4102    4.1498   -7.6107 H         1 UNK         0.0806 
    114 H114       25.1702    2.4164   -7.4041 H         1 UNK         0.0806 
    115 H115       27.9622    0.7055   -8.6004 H         1 UNK         0.3000 
    116 H116       26.8995   -0.6167  -11.0320 H         1 UNK         0.0850 
    117 H117       26.1465   -2.6167   -9.7983 H         1 UNK         0.0810 
    118 H118       25.2406   -1.2074   -9.2713 H         1 UNK         0.0810 
    119 H119       26.5334   -1.8619   -8.2604 H         1 UNK         0.0810 
    120 H120       28.9882   -1.1046   -8.1139 H         1 UNK         0.3040 
    121 H121       30.6484   -3.0358   -9.5391 H         1 UNK         0.0766 
    122 H122       30.8913   -1.8131   -6.7383 H         1 UNK         0.0812 
    123 H123       31.8260   -3.1646   -7.3605 H         1 UNK         0.0812 
    124 H124       30.0950   -3.3338   -7.1336 H         1 UNK         0.0812 
    125 H125       30.5980    0.3574   -9.1817 H         1 UNK         0.3205 
    126 H126       31.8335    2.0556   -9.8950 H         1 UNK         0.0754 
    127 H127       33.4868    1.8126  -11.6785 H         1 UNK         0.0769 
    128 H128       32.1286    0.7532  -12.0157 H         1 UNK         0.0769 
    129 H129       33.6361    0.0876  -11.3880 H         1 UNK         0.0769 
    130 H130       32.3719    0.7384   -7.3682 H         1 UNK         0.2981 
    131 H131       35.1906    0.9319   -6.8020 H         1 UNK         0.0541 
    132 H132       33.9920    4.6646   -6.2093 H         1 UNK         0.3459 
    133 H133       33.2529    3.5795   -7.3594 H         1 UNK         0.3459 
    134 H134       32.8017    0.5448   -4.9375 H         1 UNK         0.0612 
    135 H135       34.4785    0.4139   -4.4475 H         1 UNK         0.0612 
    136 H136       33.9792   -3.3541   -4.3663 H         1 UNK         0.0624 
    137 H137       34.4762   -1.9061   -3.5305 H         1 UNK         0.0624 
@<TRIPOS>BOND
     1    1    2 1    
     2    1   72 1    
     3    1   73 1    
     4    1   74 1    
     5    2    3 2    
     6    2    4 am   BACKBONE|DICT|INTERRES
     7    4    5 1    
     8    4   75 1    
     9    5    6 1    
    10    5   35 1    
    11    5   76 1    
    12    6    7 1    
    13    6   77 1    
    14    6   78 1    
    15    7    8 1    
    16    8    9 1    
    17    8   79 1    
    18    8   80 1    
    19    9   10 ar   
    20    9   14 ar   
    21   10   11 ar   
    22   10   81 1    
    23   11   12 ar   
    24   11   71 1    
    25   12   13 ar   
    26   12   82 1    
    27   13   14 ar   
    28   13   15 1    
    29   14   83 1    
    30   15   16 1    
    31   15   84 1    
    32   15   85 1    
    33   16   17 1    
    34   17   18 1    
    35   17   86 1    
    36   17   87 1    
    37   18   19 1    
    38   18   37 1    
    39   18   88 1    
    40   19   20 am   BACKBONE|DICT|INTERRES
    41   19   89 1    
    42   20   21 2    
    43   20   22 1    
    44   22   23 1    
    45   22   24 1    
    46   22   90 1    
    47   23   91 1    
    48   23   92 1    
    49   23   93 1    
    50   24   25 am   BACKBONE|DICT|INTERRES
    51   24   94 1    
    52   25   26 2    
    53   25   27 1    
    54   27   28 1    
    55   27   29 1    
    56   27   95 1    
    57   28   96 1    
    58   28   97 1    
    59   28   98 1    
    60   29   30 am   BACKBONE|DICT|INTERRES
    61   29   99 1    
    62   30   31 2    
    63   30   32 1    
    64   32   33 1    
    65   32   34 1    
    66   32  100 1    
    67   33  101 1    
    68   33  102 1    
    69   33  103 1    
    70   34   35 am   BACKBONE|DICT|INTERRES
    71   34  104 1    
    72   35   36 2    
    73   37   38 2    
    74   37   39 am   BACKBONE|DICT|INTERRES
    75   39   40 1    
    76   39  105 1    
    77   40   41 1    
    78   40   42 1    
    79   40  106 1    
    80   41  107 1    
    81   41  108 1    
    82   41  109 1    
    83   42   43 2    
    84   42   44 am   BACKBONE|DICT|INTERRES
    85   44   45 1    
    86   44  110 1    
    87   45   46 1    
    88   45   47 1    
    89   45  111 1    
    90   46  112 1    
    91   46  113 1    
    92   46  114 1    
    93   47   48 2    
    94   47   49 am   BACKBONE|DICT|INTERRES
    95   49   50 1    
    96   49  115 1    
    97   50   51 1    
    98   50   52 1    
    99   50  116 1    
   100   51  117 1    
   101   51  118 1    
   102   51  119 1    
   103   52   53 2    
   104   52   54 am   BACKBONE|DICT|INTERRES
   105   54   55 1    
   106   54  120 1    
   107   55   56 1    
   108   55   57 1    
   109   55  121 1    
   110   56  122 1    
   111   56  123 1    
   112   56  124 1    
   113   57   58 2    
   114   57   59 am   BACKBONE|DICT|INTERRES
   115   59   60 1    
   116   59  125 1    
   117   60   61 1    
   118   60   62 1    
   119   60  126 1    
   120   61  127 1    
   121   61  128 1    
   122   61  129 1    
   123   62   63 2    
   124   62   64 am   BACKBONE|DICT|INTERRES
   125   64   65 1    
   126   64  130 1    
   127   65   66 1    
   128   65   69 1    
   129   65  131 1    
   130   66   67 am   BACKBONE|DICT|INTERRES
   131   66   68 2    
   132   67  132 1    
   133   67  133 1    
   134   69   70 1    
   135   69  134 1    
   136   69  135 1    
   137   70   71 1    
   138   71  136 1    
   139   71  137 1    
@<TRIPOS>SUBSTRUCTURE
     1 UNK         1 GROUP             0       ****    0 ROOT    
