@<TRIPOS>MOLECULE
3R137
137   139    1
SMALL
USER_CHARGES


@<TRIPOS>ATOM
      1 CA         28.2026   -5.5362   -8.3082 C.3       0 UNK        -0.2020 
      2 C          27.7853   -5.9011   -6.8919 C.2       0 UNK         0.4855 
      3 O          27.2302   -6.9781   -6.6745 O.2       0 UNK        -0.5197 
      4 N          28.0412   -5.0080   -5.9271 N.am      1 UNK        -0.4892 
      5 CA         27.6931   -5.1793   -4.5077 C.3       1 UNK         0.0835 
      6 C6         28.4701   -4.1860   -3.6079 C.3       12 UNK        -0.0855 
      7 S7         30.2712   -4.4594   -3.6868 S.3       12 UNK        -0.2931 
      8 C8         30.8022   -3.8431   -2.0588 C.3       12 UNK         0.0378 
      9 C9         30.7157   -2.3259   -1.9686 C.ar      12 UNK        -0.0802 
     10 C10        31.7077   -1.5358   -2.5578 C.ar      12 UNK        -0.0944 
     11 C11        31.6598   -0.1409   -2.4642 C.ar      12 UNK        -0.0787 
     12 C12        30.6142    0.4581   -1.7546 C.ar      12 UNK        -0.0862 
     13 C13        29.6156   -0.3195   -1.1562 C.ar      12 UNK        -0.0733 
     14 C14        29.6685   -1.7120   -1.2729 C.ar      12 UNK        -0.0832 
     15 C15        28.5082    0.3446   -0.3429 C.3       12 UNK         0.0240 
     16 S16        26.9082    0.4084   -1.2183 S.3       12 UNK        -0.2522 
     17 C17        27.3303    1.3728   -2.7064 C.3       12 UNK        -0.0967 
     18 CA         27.1470    0.5011   -3.9836 C.3       5 UNK         0.0660 
     19 N          25.7557    0.4766   -4.4455 N.am      5 UNK        -0.4015 
     20 C          25.0809    1.4836   -5.0271 C.2       4 UNK         0.4946 
     21 O          25.5882    2.5718   -5.3064 O.2       4 UNK        -0.5353 
     22 CA         23.5898    1.2625   -5.3618 C.3       4 UNK         0.0277 
     23 CB         23.3942    1.0926   -6.8768 C.3       4 UNK        -0.1981 
     24 N          22.9949    0.1111   -4.6819 N.am      4 UNK        -0.4209 
     25 C          22.7342    0.0311   -3.3693 C.2       3 UNK         0.4942 
     26 O          22.8375    0.9816   -2.5935 O.2       3 UNK        -0.5208 
     27 CA         22.3137   -1.3494   -2.8206 C.3       3 UNK         0.0250 
     28 CB         20.8009   -1.3791   -2.5466 C.3       3 UNK        -0.1990 
     29 N          22.6701   -2.4942   -3.6748 N.am      3 UNK        -0.4232 
     30 C          23.9121   -2.8145   -4.0660 C.2       2 UNK         0.4993 
     31 O          24.9093   -2.1509   -3.7712 O.2       2 UNK        -0.5286 
     32 CA         24.0461   -4.0255   -5.0055 C.3       2 UNK         0.0209 
     33 CB         23.4704   -3.6998   -6.3954 C.3       2 UNK        -0.1931 
     34 N          25.4483   -4.4107   -5.1650 N.am      2 UNK        -0.4546 
     35 C          26.1767   -5.0551   -4.2435 C.2       1 UNK         0.5154 
     36 O          25.7006   -5.5314   -3.2111 O.2       1 UNK        -0.5181 
     37 C          28.1057    0.8193   -5.1472 C.2       5 UNK         0.5014 
     38 O          28.1370    0.0509   -6.1111 O.2       5 UNK        -0.5248 
     39 N          28.8579    1.9260   -5.0613 N.am      6 UNK        -0.4434 
     40 CA         29.8949    2.3278   -6.0142 C.3       6 UNK         0.0363 
     41 CB         30.5692    3.6176   -5.5235 C.3       6 UNK        -0.1936 
     42 C          29.4095    2.4905   -7.4621 C.2       6 UNK         0.5081 
     43 O          30.1910    2.2426   -8.3783 O.2       6 UNK        -0.5248 
     44 N          28.1334    2.8530   -7.6497 N.am      7 UNK        -0.4718 
     45 CA         27.4964    2.9577   -8.9648 C.3       7 UNK         0.0273 
     46 CB         26.1706    3.7206   -8.8245 C.3       7 UNK        -0.1935 
     47 C          27.2804    1.5977   -9.6575 C.2       7 UNK         0.5018 
     48 O          27.1990    1.5656  -10.8859 O.2       7 UNK        -0.5186 
     49 N          27.2025    0.5107   -8.8765 N.am      8 UNK        -0.4240 
     50 CA         27.1212   -0.8639   -9.3741 C.3       8 UNK         0.0235 
     51 CB         26.1157   -1.6627   -8.5261 C.3       8 UNK        -0.2000 
     52 C          28.4981   -1.5414   -9.3492 C.2       8 UNK         0.4941 
     53 O          28.8612   -2.2147  -10.3133 O.2       8 UNK        -0.5273 
     54 N          29.2288   -1.3694   -8.2400 N.am      9 UNK        -0.4262 
     55 CA         30.5172   -2.0097   -7.9731 C.3       9 UNK         0.0264 
     56 CB         30.7710   -1.9704   -6.4595 C.3       9 UNK        -0.1955 
     57 C          31.7056   -1.4070   -8.7438 C.2       9 UNK         0.5031 
     58 O          32.7193   -2.0929   -8.8826 O.2       9 UNK        -0.5390 
     59 N          31.5749   -0.1579   -9.2198 N.am      10 UNK        -0.4204 
     60 CA         32.5916    0.6325   -9.9288 C.3       10 UNK         0.0237 
     61 CB         32.9271    0.0073  -11.3006 C.3       10 UNK        -0.1985 
     62 C          33.8348    0.9039   -9.0580 C.2       10 UNK         0.4970 
     63 O          34.9653    0.7357   -9.5203 O.2       10 UNK        -0.4914 
     64 N          33.5921    1.2983   -7.8014 N.am      11 UNK        -0.4285 
     65 CA         34.6179    1.5966   -6.7900 C.3       11 UNK         0.1007 
     66 C          35.4952    2.8226   -7.1642 C.2       11 UNK         0.5703 
     67 N          36.7718    2.8053   -6.8053 N.am      11 UNK        -0.7361 
     68 O          35.0200    3.8031   -7.7351 O.2       11 UNK        -0.4986 
     69 C69        33.9974    1.7848   -5.3804 C.3       12 UNK        -0.0947 
     70 S70        33.0079    0.3502   -4.8520 S.3       12 UNK        -0.2240 
     71 C71        32.7524    0.7219   -3.0893 C.3       12 UNK         0.0194 
     72 H72        29.0356   -6.1616   -8.6277 H         1 UNK         0.0906 
     73 H73        27.3734   -5.6944   -8.9975 H         1 UNK         0.0906 
     74 H74        28.5076   -4.4939   -8.3873 H         1 UNK         0.0906 
     75 H75        28.5363   -4.1576   -6.1514 H         1 UNK         0.3140 
     76 H76        27.9735   -6.1936   -4.2139 H         1 UNK         0.1085 
     77 H77        28.1527   -4.2902   -2.5682 H         1 UNK         0.0836 
     78 H78        28.2568   -3.1523   -3.8890 H         1 UNK         0.0836 
     79 H79        30.2111   -4.3163   -1.2732 H         1 UNK         0.0731 
     80 H80        31.8337   -4.1545   -1.8876 H         1 UNK         0.0731 
     81 H81        32.5196   -2.0094   -3.0929 H         1 UNK         0.1312 
     82 H82        30.5854    1.5345   -1.6551 H         1 UNK         0.1406 
     83 H83        28.9016   -2.3161   -0.8071 H         1 UNK         0.1631 
     84 H84        28.7966    1.3577   -0.0582 H         1 UNK         0.0717 
     85 H85        28.3720   -0.2013    0.5917 H         1 UNK         0.0717 
     86 H86        26.7042    2.2660   -2.7392 H         1 UNK         0.0934 
     87 H87        28.3481    1.7371   -2.5843 H         1 UNK         0.0934 
     88 H88        27.3901   -0.5319   -3.7271 H         1 UNK         0.0739 
     89 H89        25.2767   -0.4032   -4.2656 H         1 UNK         0.3093 
     90 H90        23.0502    2.1572   -5.0440 H         1 UNK         0.0818 
     91 H91        22.3444    0.9418   -7.1293 H         1 UNK         0.0819 
     92 H92        23.7246    1.9803   -7.4146 H         1 UNK         0.0819 
     93 H93        23.9594    0.2452   -7.2638 H         1 UNK         0.0819 
     94 H94        22.8580   -0.7198   -5.2374 H         1 UNK         0.3041 
     95 H95        22.8360   -1.4817   -1.8706 H         1 UNK         0.0784 
     96 H96        20.5063   -0.5601   -1.8886 H         1 UNK         0.0793 
     97 H97        20.2223   -1.2820   -3.4661 H         1 UNK         0.0793 
     98 H98        20.5030   -2.3063   -2.0567 H         1 UNK         0.0793 
     99 H99        21.9033   -3.0800   -3.9744 H         1 UNK         0.3024 
    100 H100       23.4960   -4.8643   -4.5723 H         1 UNK         0.1171 
    101 H101       23.5934   -4.5387   -7.0810 H         1 UNK         0.0786 
    102 H102       23.9552   -2.8308   -6.8413 H         1 UNK         0.0786 
    103 H103       22.4021   -3.4862   -6.3436 H         1 UNK         0.0786 
    104 H104       25.9345   -4.0399   -5.9668 H         1 UNK         0.2977 
    105 H105       28.7252    2.5329   -4.2664 H         1 UNK         0.3127 
    106 H106       30.6418    1.5340   -6.0230 H         1 UNK         0.0770 
    107 H107       29.8574    4.4402   -5.4447 H         1 UNK         0.0814 
    108 H108       31.3555    3.9337   -6.2108 H         1 UNK         0.0814 
    109 H109       31.0325    3.4769   -4.5468 H         1 UNK         0.0814 
    110 H110       27.5472    3.0083   -6.8390 H         1 UNK         0.2983 
    111 H111       28.1547    3.5416   -9.6123 H         1 UNK         0.0947 
    112 H112       25.6531    3.7919   -9.7822 H         1 UNK         0.0806 
    113 H113       26.3363    4.7382   -8.4702 H         1 UNK         0.0806 
    114 H114       25.4983    3.2298   -8.1226 H         1 UNK         0.0806 
    115 H115       27.3272    0.6235   -7.8761 H         1 UNK         0.3000 
    116 H116       26.7674   -0.8725  -10.4075 H         1 UNK         0.0850 
    117 H117       26.0989   -2.7124   -8.8232 H         1 UNK         0.0810 
    118 H118       25.1050   -1.2787   -8.6575 H         1 UNK         0.0810 
    119 H119       26.3550   -1.6262   -7.4624 H         1 UNK         0.0810 
    120 H120       28.8349   -0.8197   -7.4763 H         1 UNK         0.3040 
    121 H121       30.4473   -3.0566   -8.2744 H         1 UNK         0.0766 
    122 H122       31.7280   -2.4262   -6.2013 H         1 UNK         0.0812 
    123 H123       29.9971   -2.5072   -5.9138 H         1 UNK         0.0812 
    124 H124       30.7797   -0.9484   -6.0841 H         1 UNK         0.0812 
    125 H125       30.7237    0.3508   -9.0050 H         1 UNK         0.3205 
    126 H126       32.1418    1.6074  -10.1216 H         1 UNK         0.0754 
    127 H127       33.5830    0.6612  -11.8766 H         1 UNK         0.0769 
    128 H128       32.0263   -0.1515  -11.8935 H         1 UNK         0.0769 
    129 H129       33.4348   -0.9522  -11.1985 H         1 UNK         0.0769 
    130 H130       32.6345    1.4282   -7.5142 H         1 UNK         0.2981 
    131 H131       35.2738    0.7245   -6.7493 H         1 UNK         0.0541 
    132 H132       37.1686    2.0123   -6.3253 H         1 UNK         0.3459 
    133 H133       37.3530    3.5990   -7.0255 H         1 UNK         0.3459 
    134 H134       33.3630    2.6717   -5.3534 H         1 UNK         0.0612 
    135 H135       34.7835    1.9441   -4.6399 H         1 UNK         0.0612 
    136 H136       33.6876    0.5644   -2.5507 H         1 UNK         0.0624 
    137 H137       32.5061    1.7800   -2.9885 H         1 UNK         0.0624 
@<TRIPOS>BOND
     1    1    2 1    
     2    1   72 1    
     3    1   73 1    
     4    1   74 1    
     5    2    3 2    
     6    2    4 am   BACKBONE|DICT|INTERRES
     7    4    5 1    
     8    4   75 1    
     9    5    6 1    
    10    5   35 1    
    11    5   76 1    
    12    6    7 1    
    13    6   77 1    
    14    6   78 1    
    15    7    8 1    
    16    8    9 1    
    17    8   79 1    
    18    8   80 1    
    19    9   10 ar   
    20    9   14 ar   
    21   10   11 ar   
    22   10   81 1    
    23   11   12 ar   
    24   11   71 1    
    25   12   13 ar   
    26   12   82 1    
    27   13   14 ar   
    28   13   15 1    
    29   14   83 1    
    30   15   16 1    
    31   15   84 1    
    32   15   85 1    
    33   16   17 1    
    34   17   18 1    
    35   17   86 1    
    36   17   87 1    
    37   18   19 1    
    38   18   37 1    
    39   18   88 1    
    40   19   20 am   BACKBONE|DICT|INTERRES
    41   19   89 1    
    42   20   21 2    
    43   20   22 1    
    44   22   23 1    
    45   22   24 1    
    46   22   90 1    
    47   23   91 1    
    48   23   92 1    
    49   23   93 1    
    50   24   25 am   BACKBONE|DICT|INTERRES
    51   24   94 1    
    52   25   26 2    
    53   25   27 1    
    54   27   28 1    
    55   27   29 1    
    56   27   95 1    
    57   28   96 1    
    58   28   97 1    
    59   28   98 1    
    60   29   30 am   BACKBONE|DICT|INTERRES
    61   29   99 1    
    62   30   31 2    
    63   30   32 1    
    64   32   33 1    
    65   32   34 1    
    66   32  100 1    
    67   33  101 1    
    68   33  102 1    
    69   33  103 1    
    70   34   35 am   BACKBONE|DICT|INTERRES
    71   34  104 1    
    72   35   36 2    
    73   37   38 2    
    74   37   39 am   BACKBONE|DICT|INTERRES
    75   39   40 1    
    76   39  105 1    
    77   40   41 1    
    78   40   42 1    
    79   40  106 1    
    80   41  107 1    
    81   41  108 1    
    82   41  109 1    
    83   42   43 2    
    84   42   44 am   BACKBONE|DICT|INTERRES
    85   44   45 1    
    86   44  110 1    
    87   45   46 1    
    88   45   47 1    
    89   45  111 1    
    90   46  112 1    
    91   46  113 1    
    92   46  114 1    
    93   47   48 2    
    94   47   49 am   BACKBONE|DICT|INTERRES
    95   49   50 1    
    96   49  115 1    
    97   50   51 1    
    98   50   52 1    
    99   50  116 1    
   100   51  117 1    
   101   51  118 1    
   102   51  119 1    
   103   52   53 2    
   104   52   54 am   BACKBONE|DICT|INTERRES
   105   54   55 1    
   106   54  120 1    
   107   55   56 1    
   108   55   57 1    
   109   55  121 1    
   110   56  122 1    
   111   56  123 1    
   112   56  124 1    
   113   57   58 2    
   114   57   59 am   BACKBONE|DICT|INTERRES
   115   59   60 1    
   116   59  125 1    
   117   60   61 1    
   118   60   62 1    
   119   60  126 1    
   120   61  127 1    
   121   61  128 1    
   122   61  129 1    
   123   62   63 2    
   124   62   64 am   BACKBONE|DICT|INTERRES
   125   64   65 1    
   126   64  130 1    
   127   65   66 1    
   128   65   69 1    
   129   65  131 1    
   130   66   67 am   BACKBONE|DICT|INTERRES
   131   66   68 2    
   132   67  132 1    
   133   67  133 1    
   134   69   70 1    
   135   69  134 1    
   136   69  135 1    
   137   70   71 1    
   138   71  136 1    
   139   71  137 1    
@<TRIPOS>SUBSTRUCTURE
     1 UNK         1 GROUP             0       ****    0 ROOT    
