@<TRIPOS>MOLECULE
3R137
137   139    1
SMALL
USER_CHARGES


@<TRIPOS>ATOM
      1 CA         28.0365    0.4542    0.6935 C.3       0 UNK        -0.2020 
      2 C          27.1369   -0.5700    1.3752 C.2       0 UNK         0.4855 
      3 O          26.3839   -0.2040    2.2759 O.2       0 UNK        -0.5197 
      4 N          27.1606   -1.8501    0.9888 N.am      1 UNK        -0.4892 
      5 CA         27.9361   -2.4560   -0.0988 C.3       1 UNK         0.0835 
      6 C6         29.0494   -3.3890    0.4450 C.3       12 UNK        -0.0855 
      7 S7         30.3913   -2.4499    1.2497 S.3       12 UNK        -0.2931 
      8 C8         31.7718   -2.6598    0.0776 C.3       12 UNK         0.0378 
      9 C9         31.4459   -2.1419   -1.3179 C.ar      12 UNK        -0.0802 
     10 C10        31.3326   -3.0356   -2.3887 C.ar      12 UNK        -0.0944 
     11 C11        31.0557   -2.5671   -3.6755 C.ar      12 UNK        -0.0787 
     12 C12        30.8888   -1.1974   -3.8892 C.ar      12 UNK        -0.0862 
     13 C13        30.9927   -0.2948   -2.8276 C.ar      12 UNK        -0.0733 
     14 C14        31.2784   -0.7708   -1.5440 C.ar      12 UNK        -0.0832 
     15 C15        30.7994    1.1935   -3.0804 C.3       12 UNK         0.0240 
     16 S16        29.1550    1.7924   -2.5671 S.3       12 UNK        -0.2522 
     17 C17        28.0103    0.6845   -3.4592 C.3       12 UNK        -0.0967 
     18 CA         27.8424    1.0490   -4.9568 C.3       5 UNK         0.0660 
     19 N          27.5103   -0.1282   -5.7643 N.am      5 UNK        -0.4015 
     20 C          27.5417   -0.1635   -7.1058 C.2       4 UNK         0.4946 
     21 O          27.8926    0.7883   -7.7989 O.2       4 UNK        -0.5353 
     22 CA         27.0571   -1.4461   -7.8088 C.3       4 UNK         0.0277 
     23 CB         28.2399   -2.3849   -8.0931 C.3       4 UNK        -0.1981 
     24 N          26.0252   -2.1730   -7.0673 N.am      4 UNK        -0.4209 
     25 C          24.8385   -1.6699   -6.6964 C.2       3 UNK         0.4942 
     26 O          24.4326   -0.5584   -7.0371 O.2       3 UNK        -0.5208 
     27 CA         24.0003   -2.5156   -5.7171 C.3       3 UNK         0.0250 
     28 CB         22.9561   -3.3425   -6.4832 C.3       3 UNK        -0.1990 
     29 N          24.7924   -3.4049   -4.8509 N.am      3 UNK        -0.4232 
     30 C          25.7734   -3.0057   -4.0273 C.2       2 UNK         0.4993 
     31 O          26.1301   -1.8297   -3.9165 O.2       2 UNK        -0.5286 
     32 CA         26.5362   -4.1073   -3.2738 C.3       2 UNK         0.0209 
     33 CB         27.4320   -4.8961   -4.2442 C.3       2 UNK        -0.1931 
     34 N          27.3804   -3.5184   -2.2313 N.am      2 UNK        -0.4546 
     35 C          26.9573   -3.2380   -0.9934 C.2       1 UNK         0.5154 
     36 O          25.8550   -3.5809   -0.5534 O.2       1 UNK        -0.5181 
     37 C          26.8128    2.1794   -5.1572 C.2       5 UNK         0.5014 
     38 O          27.2033    3.3365   -5.3152 O.2       5 UNK        -0.5248 
     39 N          25.5205    1.8183   -5.1929 N.am      6 UNK        -0.4434 
     40 CA         24.4108    2.7368   -5.4628 C.3       6 UNK         0.0363 
     41 CB         23.0794    2.0659   -5.0882 C.3       6 UNK        -0.1936 
     42 C          24.3906    3.2179   -6.9237 C.2       6 UNK         0.5081 
     43 O          24.0730    4.3806   -7.1739 O.2       6 UNK        -0.5248 
     44 N          24.7579    2.3285   -7.8569 N.am      7 UNK        -0.4718 
     45 CA         24.9172    2.6329   -9.2830 C.3       7 UNK         0.0273 
     46 CB         24.9305    1.3148  -10.0737 C.3       7 UNK        -0.1935 
     47 C          26.1801    3.4576   -9.6062 C.2       7 UNK         0.5018 
     48 O          26.2699    3.9930  -10.7117 O.2       7 UNK        -0.5186 
     49 N          27.1266    3.5256   -8.6572 N.am      8 UNK        -0.4240 
     50 CA         28.4617    4.1275   -8.7521 C.3       8 UNK         0.0235 
     51 CB         28.3723    5.6567   -8.9443 C.3       8 UNK        -0.2000 
     52 C          29.3477    3.4276   -9.8028 C.2       8 UNK         0.4941 
     53 O          30.0457    4.0954  -10.5693 O.2       8 UNK        -0.5273 
     54 N          29.2973    2.0909   -9.8162 N.am      9 UNK        -0.4262 
     55 CA         30.0764    1.2136  -10.6849 C.3       9 UNK         0.0264 
     56 CB         29.1278    0.1744  -11.3058 C.3       9 UNK        -0.1955 
     57 C          31.1704    0.5155   -9.8653 C.2       9 UNK         0.5031 
     58 O          30.9845    0.2636   -8.6721 O.2       9 UNK        -0.5390 
     59 N          32.2872    0.1890  -10.5251 N.am      10 UNK        -0.4204 
     60 CA         33.3981   -0.5538   -9.9333 C.3       10 UNK         0.0237 
     61 CB         34.6942   -0.2306  -10.6975 C.3       10 UNK        -0.1985 
     62 C          33.0948   -2.0590   -9.9622 C.2       10 UNK         0.4970 
     63 O          33.0501   -2.6443  -11.0462 O.2       10 UNK        -0.4914 
     64 N          32.8971   -2.6520   -8.7803 N.am      11 UNK        -0.4285 
     65 CA         32.7086   -4.0997   -8.5879 C.3       11 UNK         0.1007 
     66 C          34.0203   -4.9391   -8.6257 C.2       11 UNK         0.5703 
     67 N          35.2017   -4.3326   -8.6559 N.am      11 UNK        -0.7361 
     68 O          33.9633   -6.1664   -8.6475 O.2       11 UNK        -0.4986 
     69 C69        31.8479   -4.4065   -7.3327 C.3       12 UNK        -0.0947 
     70 S70        32.4657   -3.6285   -5.7997 S.3       12 UNK        -0.2240 
     71 C71        30.9250   -3.5301   -4.8419 C.3       12 UNK         0.0194 
     72 H72        27.6688    0.6619   -0.3097 H         1 UNK         0.0906 
     73 H73        28.0399    1.3920    1.2484 H         1 UNK         0.0906 
     74 H74        29.0667    0.1080    0.6292 H         1 UNK         0.0906 
     75 H75        26.4893   -2.4868    1.3983 H         1 UNK         0.3140 
     76 H76        28.3873   -1.6899   -0.7317 H         1 UNK         0.1085 
     77 H77        29.4760   -4.0037   -0.3496 H         1 UNK         0.0836 
     78 H78        28.6383   -4.0923    1.1718 H         1 UNK         0.0836 
     79 H79        32.0516   -3.7140    0.0456 H         1 UNK         0.0731 
     80 H80        32.6429   -2.1267    0.4610 H         1 UNK         0.0731 
     81 H81        31.4672   -4.0962   -2.2239 H         1 UNK         0.1312 
     82 H82        30.6732   -0.8347   -4.8856 H         1 UNK         0.1406 
     83 H83        31.3640   -0.0758   -0.7195 H         1 UNK         0.1631 
     84 H84        30.9504    1.4254   -4.1358 H         1 UNK         0.0717 
     85 H85        31.5614    1.7551   -2.5382 H         1 UNK         0.0717 
     86 H86        28.3669   -0.3387   -3.3485 H         1 UNK         0.0934 
     87 H87        27.0489    0.6899   -2.9412 H         1 UNK         0.0934 
     88 H88        28.8001    1.4142   -5.3337 H         1 UNK         0.0739 
     89 H89        27.1344   -0.9212   -5.2514 H         1 UNK         0.3093 
     90 H90        26.6245   -1.1491   -8.7651 H         1 UNK         0.0818 
     91 H91        27.9467   -3.2053   -8.7482 H         1 UNK         0.0819 
     92 H92        29.0576   -1.8552   -8.5847 H         1 UNK         0.0819 
     93 H93        28.6383   -2.8147   -7.1760 H         1 UNK         0.0819 
     94 H94        26.2616   -3.1020   -6.7525 H         1 UNK         0.3041 
     95 H95        23.4716   -1.8163   -5.0660 H         1 UNK         0.0784 
     96 H96        23.4236   -4.0869   -7.1291 H         1 UNK         0.0793 
     97 H97        22.3400   -2.7023   -7.1166 H         1 UNK         0.0793 
     98 H98        22.2827   -3.8627   -5.8016 H         1 UNK         0.0793 
     99 H99        24.5673   -4.3889   -4.8960 H         1 UNK         0.3024 
    100 H100       25.8119   -4.7892   -2.8214 H         1 UNK         0.1171 
    101 H101       28.0509   -5.6209   -3.7146 H         1 UNK         0.0786 
    102 H102       26.8361   -5.4541   -4.9675 H         1 UNK         0.0786 
    103 H103       28.0929   -4.2387   -4.8078 H         1 UNK         0.0786 
    104 H104       28.2822   -3.1757   -2.5294 H         1 UNK         0.2977 
    105 H105       25.2869    0.8394   -5.1003 H         1 UNK         0.3127 
    106 H106       24.5381    3.6157   -4.8269 H         1 UNK         0.0770 
    107 H107       22.8873    1.1773   -5.6903 H         1 UNK         0.0814 
    108 H108       22.2438    2.7496   -5.2440 H         1 UNK         0.0814 
    109 H109       23.0642    1.7710   -4.0389 H         1 UNK         0.0814 
    110 H110       24.9257    1.3692   -7.5693 H         1 UNK         0.2983 
    111 H111       24.0532    3.2182   -9.6055 H         1 UNK         0.0947 
    112 H112       24.9265    1.5054  -11.1477 H         1 UNK         0.0806 
    113 H113       24.0571    0.7023   -9.8485 H         1 UNK         0.0806 
    114 H114       25.8215    0.7274   -9.8543 H         1 UNK         0.0806 
    115 H115       26.9547    3.0027   -7.8082 H         1 UNK         0.3000 
    116 H116       28.9393    3.9460   -7.7879 H         1 UNK         0.0850 
    117 H117       29.3597    6.1155   -8.8799 H         1 UNK         0.0810 
    118 H118       27.7510    6.1163   -8.1757 H         1 UNK         0.0810 
    119 H119       27.9554    5.9211   -9.9165 H         1 UNK         0.0810 
    120 H120       28.7657    1.6180   -9.0827 H         1 UNK         0.3040 
    121 H121       30.5443    1.7879  -11.4873 H         1 UNK         0.0766 
    122 H122       28.6268   -0.4211  -10.5421 H         1 UNK         0.0812 
    123 H123       29.6679   -0.5140  -11.9571 H         1 UNK         0.0812 
    124 H124       28.3575    0.6557  -11.9087 H         1 UNK         0.0812 
    125 H125       32.3488    0.3819  -11.5148 H         1 UNK         0.3205 
    126 H126       33.5353   -0.2335   -8.8977 H         1 UNK         0.0754 
    127 H127       34.9317    0.8321  -10.6415 H         1 UNK         0.0769 
    128 H128       34.6256   -0.5025  -11.7518 H         1 UNK         0.0769 
    129 H129       35.5411   -0.7735  -10.2758 H         1 UNK         0.0769 
    130 H130       32.9272   -2.1012   -7.9343 H         1 UNK         0.2981 
    131 H131       32.1310   -4.4615   -9.4408 H         1 UNK         0.0541 
    132 H132       36.0408   -4.8900   -8.6875 H         1 UNK         0.3459 
    133 H133       35.2631   -3.3282   -8.6329 H         1 UNK         0.3459 
    134 H134       31.7539   -5.4816   -7.1692 H         1 UNK         0.0612 
    135 H135       30.8341   -4.0505   -7.5182 H         1 UNK         0.0612 
    136 H136       30.1167   -3.1893   -5.4865 H         1 UNK         0.0624 
    137 H137       30.6513   -4.5275   -4.4948 H         1 UNK         0.0624 
@<TRIPOS>BOND
     1    1    2 1    
     2    1   72 1    
     3    1   73 1    
     4    1   74 1    
     5    2    3 2    
     6    2    4 am   BACKBONE|DICT|INTERRES
     7    4    5 1    
     8    4   75 1    
     9    5    6 1    
    10    5   35 1    
    11    5   76 1    
    12    6    7 1    
    13    6   77 1    
    14    6   78 1    
    15    7    8 1    
    16    8    9 1    
    17    8   79 1    
    18    8   80 1    
    19    9   10 ar   
    20    9   14 ar   
    21   10   11 ar   
    22   10   81 1    
    23   11   12 ar   
    24   11   71 1    
    25   12   13 ar   
    26   12   82 1    
    27   13   14 ar   
    28   13   15 1    
    29   14   83 1    
    30   15   16 1    
    31   15   84 1    
    32   15   85 1    
    33   16   17 1    
    34   17   18 1    
    35   17   86 1    
    36   17   87 1    
    37   18   19 1    
    38   18   37 1    
    39   18   88 1    
    40   19   20 am   BACKBONE|DICT|INTERRES
    41   19   89 1    
    42   20   21 2    
    43   20   22 1    
    44   22   23 1    
    45   22   24 1    
    46   22   90 1    
    47   23   91 1    
    48   23   92 1    
    49   23   93 1    
    50   24   25 am   BACKBONE|DICT|INTERRES
    51   24   94 1    
    52   25   26 2    
    53   25   27 1    
    54   27   28 1    
    55   27   29 1    
    56   27   95 1    
    57   28   96 1    
    58   28   97 1    
    59   28   98 1    
    60   29   30 am   BACKBONE|DICT|INTERRES
    61   29   99 1    
    62   30   31 2    
    63   30   32 1    
    64   32   33 1    
    65   32   34 1    
    66   32  100 1    
    67   33  101 1    
    68   33  102 1    
    69   33  103 1    
    70   34   35 am   BACKBONE|DICT|INTERRES
    71   34  104 1    
    72   35   36 2    
    73   37   38 2    
    74   37   39 am   BACKBONE|DICT|INTERRES
    75   39   40 1    
    76   39  105 1    
    77   40   41 1    
    78   40   42 1    
    79   40  106 1    
    80   41  107 1    
    81   41  108 1    
    82   41  109 1    
    83   42   43 2    
    84   42   44 am   BACKBONE|DICT|INTERRES
    85   44   45 1    
    86   44  110 1    
    87   45   46 1    
    88   45   47 1    
    89   45  111 1    
    90   46  112 1    
    91   46  113 1    
    92   46  114 1    
    93   47   48 2    
    94   47   49 am   BACKBONE|DICT|INTERRES
    95   49   50 1    
    96   49  115 1    
    97   50   51 1    
    98   50   52 1    
    99   50  116 1    
   100   51  117 1    
   101   51  118 1    
   102   51  119 1    
   103   52   53 2    
   104   52   54 am   BACKBONE|DICT|INTERRES
   105   54   55 1    
   106   54  120 1    
   107   55   56 1    
   108   55   57 1    
   109   55  121 1    
   110   56  122 1    
   111   56  123 1    
   112   56  124 1    
   113   57   58 2    
   114   57   59 am   BACKBONE|DICT|INTERRES
   115   59   60 1    
   116   59  125 1    
   117   60   61 1    
   118   60   62 1    
   119   60  126 1    
   120   61  127 1    
   121   61  128 1    
   122   61  129 1    
   123   62   63 2    
   124   62   64 am   BACKBONE|DICT|INTERRES
   125   64   65 1    
   126   64  130 1    
   127   65   66 1    
   128   65   69 1    
   129   65  131 1    
   130   66   67 am   BACKBONE|DICT|INTERRES
   131   66   68 2    
   132   67  132 1    
   133   67  133 1    
   134   69   70 1    
   135   69  134 1    
   136   69  135 1    
   137   70   71 1    
   138   71  136 1    
   139   71  137 1    
@<TRIPOS>SUBSTRUCTURE
     1 UNK         1 GROUP             0       ****    0 ROOT    
