@<TRIPOS>MOLECULE
3R137
137   139    1
SMALL
USER_CHARGES


@<TRIPOS>ATOM
      1 CA         25.2245   -5.6694    1.1530 C.3       0 UNK        -0.2020 
      2 C          26.1445   -4.6258    0.5384 C.2       0 UNK         0.4855 
      3 O          26.4610   -3.6281    1.1862 O.2       0 UNK        -0.5197 
      4 N          26.5640   -4.8328   -0.7157 N.am      1 UNK        -0.4892 
      5 CA         27.4870   -3.9777   -1.4767 C.3       1 UNK         0.0835 
      6 C6         28.1940   -4.7822   -2.6000 C.3       12 UNK        -0.0855 
      7 S7         29.3984   -6.0054   -1.9668 S.3       12 UNK        -0.2931 
      8 C8         30.8681   -5.0039   -1.5166 C.3       12 UNK         0.0378 
      9 C9         31.1093   -3.8237   -2.4500 C.ar      12 UNK        -0.0802 
     10 C10        31.4515   -4.0379   -3.7897 C.ar      12 UNK        -0.0944 
     11 C11        31.5443   -2.9610   -4.6766 C.ar      12 UNK        -0.0787 
     12 C12        31.3121   -1.6655   -4.2088 C.ar      12 UNK        -0.0862 
     13 C13        31.0222   -1.4326   -2.8649 C.ar      12 UNK        -0.0733 
     14 C14        30.9252   -2.5161   -1.9871 C.ar      12 UNK        -0.0832 
     15 C15        30.7782   -0.0150   -2.3717 C.3       12 UNK         0.0240 
     16 S16        29.0135    0.2302   -2.0298 S.3       12 UNK        -0.2522 
     17 C17        28.5827    1.7024   -3.0128 C.3       12 UNK        -0.0967 
     18 CA         28.5163    1.5043   -4.5551 C.3       5 UNK         0.0660 
     19 N          27.9491    0.2208   -4.9820 N.am      5 UNK        -0.4015 
     20 C          27.9183   -0.2123   -6.2530 C.2       4 UNK         0.4946 
     21 O          28.4429    0.3785   -7.1997 O.2       4 UNK        -0.5353 
     22 CA         27.1372   -1.5027   -6.5297 C.3       4 UNK         0.0277 
     23 CB         28.0489   -2.7290   -6.3663 C.3       4 UNK        -0.1981 
     24 N          25.9608   -1.6244   -5.6658 N.am      4 UNK        -0.4209 
     25 C          24.8430   -0.8976   -5.8101 C.2       3 UNK         0.4942 
     26 O          24.6784   -0.0720   -6.7068 O.2       3 UNK        -0.5208 
     27 CA         23.7331   -1.0904   -4.7615 C.3       3 UNK         0.0250 
     28 CB         22.8564   -2.3009   -5.1187 C.3       3 UNK        -0.1990 
     29 N          24.2390   -1.2367   -3.3948 N.am      3 UNK        -0.4232 
     30 C          24.9288   -0.2953   -2.7363 C.2       2 UNK         0.4993 
     31 O          25.1909    0.8141   -3.2031 O.2       2 UNK        -0.5286 
     32 CA         25.4508   -0.6638   -1.3363 C.3       2 UNK         0.0209 
     33 CB         24.3505   -0.4483   -0.2848 C.3       2 UNK        -0.1931 
     34 N          26.0146   -2.0145   -1.1735 N.am      2 UNK        -0.4546 
     35 C          26.8246   -2.6819   -2.0103 C.2       1 UNK         0.5154 
     36 O          27.0634   -2.3073   -3.1583 O.2       1 UNK        -0.5181 
     37 C          27.7459    2.6777   -5.1954 C.2       5 UNK         0.5014 
     38 O          28.3640    3.5725   -5.7725 O.2       5 UNK        -0.5248 
     39 N          26.4083    2.6351   -5.0859 N.am      6 UNK        -0.4434 
     40 CA         25.4837    3.6364   -5.6196 C.3       6 UNK         0.0363 
     41 CB         24.0690    3.3638   -5.0838 C.3       6 UNK        -0.1936 
     42 C          25.4767    3.7013   -7.1550 C.2       6 UNK         0.5081 
     43 O          25.4882    4.8002   -7.7107 O.2       6 UNK        -0.5248 
     44 N          25.4626    2.5346   -7.8149 N.am      7 UNK        -0.4718 
     45 CA         25.4867    2.4200   -9.2767 C.3       7 UNK         0.0273 
     46 CB         25.0460    1.0034   -9.6811 C.3       7 UNK        -0.1935 
     47 C          26.8568    2.7367   -9.9004 C.2       7 UNK         0.5018 
     48 O          26.9084    3.0216  -11.0976 O.2       7 UNK        -0.5186 
     49 N          27.9288    2.6446   -9.0975 N.am      8 UNK        -0.4240 
     50 CA         29.3415    2.6925   -9.4927 C.3       8 UNK         0.0235 
     51 CB         29.7303    4.0850  -10.0326 C.3       8 UNK        -0.2000 
     52 C          29.6949    1.5401  -10.4533 C.2       8 UNK         0.4941 
     53 O          30.3701    1.7502  -11.4635 O.2       8 UNK        -0.5273 
     54 N          29.2028    0.3374  -10.1249 N.am      9 UNK        -0.4262 
     55 CA         29.4357   -0.8973  -10.8705 C.3       9 UNK         0.0264 
     56 CB         28.3364   -1.9124  -10.5108 C.3       9 UNK        -0.1955 
     57 C          30.8366   -1.4214  -10.5312 C.2       9 UNK         0.5031 
     58 O          30.9977   -2.0691   -9.4946 O.2       9 UNK        -0.5390 
     59 N          31.8298   -1.0518  -11.3534 N.am      10 UNK        -0.4204 
     60 CA         33.2721   -1.2180  -11.1296 C.3       10 UNK         0.0237 
     61 CB         33.6811   -2.7092  -11.1185 C.3       10 UNK        -0.1985 
     62 C          33.7091   -0.4401   -9.8749 C.2       10 UNK         0.4970 
     63 O          33.9679    0.7599   -9.9719 O.2       10 UNK        -0.4914 
     64 N          33.7319   -1.1200   -8.7238 N.am      11 UNK        -0.4285 
     65 CA         33.8114   -0.5145   -7.3874 C.3       11 UNK         0.1007 
     66 C          32.5574    0.3186   -6.9885 C.2       11 UNK         0.5703 
     67 N          31.3890    0.0683   -7.5656 N.am      11 UNK        -0.7361 
     68 O          32.6477    1.1937   -6.1316 O.2       11 UNK        -0.4986 
     69 C69        34.1964   -1.5514   -6.2861 C.3       12 UNK        -0.0947 
     70 S70        33.6079   -3.2712   -6.5310 S.3       12 UNK        -0.2240 
     71 C71        31.8288   -3.2015   -6.1508 C.3       12 UNK         0.0194 
     72 H72        24.2716   -5.2162    1.4251 H         1 UNK         0.0906 
     73 H73        25.0255   -6.4930    0.4675 H         1 UNK         0.0906 
     74 H74        25.6759   -6.0813    2.0552 H         1 UNK         0.0906 
     75 H75        26.2569   -5.6644   -1.2006 H         1 UNK         0.3140 
     76 H76        28.2613   -3.6283   -0.7905 H         1 UNK         0.1085 
     77 H77        28.7067   -4.1340   -3.3096 H         1 UNK         0.0836 
     78 H78        27.4530   -5.3122   -3.2005 H         1 UNK         0.0836 
     79 H79        31.7484   -5.6482   -1.5159 H         1 UNK         0.0731 
     80 H80        30.7467   -4.6581   -0.4889 H         1 UNK         0.0731 
     81 H81        31.5932   -5.0471   -4.1516 H         1 UNK         0.1312 
     82 H82        31.3415   -0.8316   -4.8902 H         1 UNK         0.1406 
     83 H83        30.6640   -2.3376   -0.9528 H         1 UNK         0.1631 
     84 H84        31.1299    0.7159   -3.1017 H         1 UNK         0.0717 
     85 H85        31.3487    0.1610   -1.4588 H         1 UNK         0.0717 
     86 H86        27.6186    2.0370   -2.6240 H         1 UNK         0.0934 
     87 H87        29.2858    2.5014   -2.7700 H         1 UNK         0.0934 
     88 H88        29.5388    1.5335   -4.9380 H         1 UNK         0.0739 
     89 H89        27.5364   -0.3564   -4.2589 H         1 UNK         0.3093 
     90 H90        26.7949   -1.4690   -7.5660 H         1 UNK         0.0818 
     91 H91        27.5100   -3.6561   -6.5605 H         1 UNK         0.0819 
     92 H92        28.8834   -2.6853   -7.0672 H         1 UNK         0.0819 
     93 H93        28.4742   -2.7893   -5.3641 H         1 UNK         0.0819 
     94 H94        26.0775   -2.1826   -4.8251 H         1 UNK         0.3041 
     95 H95        23.1050   -0.1972   -4.7848 H         1 UNK         0.0784 
     96 H96        22.4522   -2.2045   -6.1275 H         1 UNK         0.0793 
     97 H97        23.4197   -3.2343   -5.0810 H         1 UNK         0.0793 
     98 H98        22.0086   -2.3915   -4.4394 H         1 UNK         0.0793 
     99 H99        24.0912   -2.1256   -2.9396 H         1 UNK         0.3024 
    100 H100       26.2574    0.0364   -1.1152 H         1 UNK         0.1171 
    101 H101       24.7429   -0.5529    0.7270 H         1 UNK         0.0786 
    102 H102       23.9239    0.5530   -0.3623 H         1 UNK         0.0786 
    103 H103       23.5343   -1.1620   -0.4031 H         1 UNK         0.0786 
    104 H104       25.9213   -2.4226   -0.2480 H         1 UNK         0.2977 
    105 H105       25.9894    1.8784   -4.5475 H         1 UNK         0.3127 
    106 H106       25.8049    4.6123   -5.2494 H         1 UNK         0.0770 
    107 H107       23.7048    2.3817   -5.3886 H         1 UNK         0.0814 
    108 H108       23.3602    4.1058   -5.4536 H         1 UNK         0.0814 
    109 H109       24.0433    3.4045   -3.9946 H         1 UNK         0.0814 
    110 H110       25.3833    1.6663   -7.2910 H         1 UNK         0.2983 
    111 H111       24.7685    3.1320   -9.6894 H         1 UNK         0.0947 
    112 H112       25.7259    0.2447   -9.2914 H         1 UNK         0.0806 
    113 H113       25.0222    0.8938  -10.7662 H         1 UNK         0.0806 
    114 H114       24.0454    0.7784   -9.3114 H         1 UNK         0.0806 
    115 H115       27.7634    2.3679   -8.1373 H         1 UNK         0.3000 
    116 H116       29.9182    2.5207   -8.5825 H         1 UNK         0.0850 
    117 H117       29.4678    4.8708   -9.3243 H         1 UNK         0.0810 
    118 H118       29.2389    4.3077  -10.9800 H         1 UNK         0.0810 
    119 H119       30.8057    4.1476  -10.2036 H         1 UNK         0.0810 
    120 H120       28.7298    0.2503   -9.2308 H         1 UNK         0.3040 
    121 H121       29.3755   -0.6937  -11.9418 H         1 UNK         0.0766 
    122 H122       28.4852   -2.8514  -11.0454 H         1 UNK         0.0812 
    123 H123       27.3483   -1.5379  -10.7787 H         1 UNK         0.0812 
    124 H124       28.3285   -2.1430   -9.4454 H         1 UNK         0.0812 
    125 H125       31.5849   -0.4385  -12.1202 H         1 UNK         0.3205 
    126 H126       33.7751   -0.7478  -11.9762 H         1 UNK         0.0754 
    127 H127       34.7536   -2.8173  -10.9511 H         1 UNK         0.0769 
    128 H128       33.4575   -3.1796  -12.0760 H         1 UNK         0.0769 
    129 H129       33.1703   -3.2849  -10.3464 H         1 UNK         0.0769 
    130 H130       33.4532   -2.0910   -8.7383 H         1 UNK         0.2981 
    131 H131       34.6249    0.2126   -7.4273 H         1 UNK         0.0541 
    132 H132       30.5582    0.5663   -7.2793 H         1 UNK         0.3459 
    133 H133       31.3078   -0.6912   -8.2349 H         1 UNK         0.3459 
    134 H134       35.2846   -1.6190   -6.2558 H         1 UNK         0.0612 
    135 H135       33.9164   -1.2119   -5.2874 H         1 UNK         0.0612 
    136 H136       31.3476   -2.4427   -6.7639 H         1 UNK         0.0624 
    137 H137       31.3783   -4.1473   -6.4548 H         1 UNK         0.0624 
@<TRIPOS>BOND
     1    1    2 1    
     2    1   72 1    
     3    1   73 1    
     4    1   74 1    
     5    2    3 2    
     6    2    4 am   BACKBONE|DICT|INTERRES
     7    4    5 1    
     8    4   75 1    
     9    5    6 1    
    10    5   35 1    
    11    5   76 1    
    12    6    7 1    
    13    6   77 1    
    14    6   78 1    
    15    7    8 1    
    16    8    9 1    
    17    8   79 1    
    18    8   80 1    
    19    9   10 ar   
    20    9   14 ar   
    21   10   11 ar   
    22   10   81 1    
    23   11   12 ar   
    24   11   71 1    
    25   12   13 ar   
    26   12   82 1    
    27   13   14 ar   
    28   13   15 1    
    29   14   83 1    
    30   15   16 1    
    31   15   84 1    
    32   15   85 1    
    33   16   17 1    
    34   17   18 1    
    35   17   86 1    
    36   17   87 1    
    37   18   19 1    
    38   18   37 1    
    39   18   88 1    
    40   19   20 am   BACKBONE|DICT|INTERRES
    41   19   89 1    
    42   20   21 2    
    43   20   22 1    
    44   22   23 1    
    45   22   24 1    
    46   22   90 1    
    47   23   91 1    
    48   23   92 1    
    49   23   93 1    
    50   24   25 am   BACKBONE|DICT|INTERRES
    51   24   94 1    
    52   25   26 2    
    53   25   27 1    
    54   27   28 1    
    55   27   29 1    
    56   27   95 1    
    57   28   96 1    
    58   28   97 1    
    59   28   98 1    
    60   29   30 am   BACKBONE|DICT|INTERRES
    61   29   99 1    
    62   30   31 2    
    63   30   32 1    
    64   32   33 1    
    65   32   34 1    
    66   32  100 1    
    67   33  101 1    
    68   33  102 1    
    69   33  103 1    
    70   34   35 am   BACKBONE|DICT|INTERRES
    71   34  104 1    
    72   35   36 2    
    73   37   38 2    
    74   37   39 am   BACKBONE|DICT|INTERRES
    75   39   40 1    
    76   39  105 1    
    77   40   41 1    
    78   40   42 1    
    79   40  106 1    
    80   41  107 1    
    81   41  108 1    
    82   41  109 1    
    83   42   43 2    
    84   42   44 am   BACKBONE|DICT|INTERRES
    85   44   45 1    
    86   44  110 1    
    87   45   46 1    
    88   45   47 1    
    89   45  111 1    
    90   46  112 1    
    91   46  113 1    
    92   46  114 1    
    93   47   48 2    
    94   47   49 am   BACKBONE|DICT|INTERRES
    95   49   50 1    
    96   49  115 1    
    97   50   51 1    
    98   50   52 1    
    99   50  116 1    
   100   51  117 1    
   101   51  118 1    
   102   51  119 1    
   103   52   53 2    
   104   52   54 am   BACKBONE|DICT|INTERRES
   105   54   55 1    
   106   54  120 1    
   107   55   56 1    
   108   55   57 1    
   109   55  121 1    
   110   56  122 1    
   111   56  123 1    
   112   56  124 1    
   113   57   58 2    
   114   57   59 am   BACKBONE|DICT|INTERRES
   115   59   60 1    
   116   59  125 1    
   117   60   61 1    
   118   60   62 1    
   119   60  126 1    
   120   61  127 1    
   121   61  128 1    
   122   61  129 1    
   123   62   63 2    
   124   62   64 am   BACKBONE|DICT|INTERRES
   125   64   65 1    
   126   64  130 1    
   127   65   66 1    
   128   65   69 1    
   129   65  131 1    
   130   66   67 am   BACKBONE|DICT|INTERRES
   131   66   68 2    
   132   67  132 1    
   133   67  133 1    
   134   69   70 1    
   135   69  134 1    
   136   69  135 1    
   137   70   71 1    
   138   71  136 1    
   139   71  137 1    
@<TRIPOS>SUBSTRUCTURE
     1 UNK         1 GROUP             0       ****    0 ROOT    
