@<TRIPOS>MOLECULE
3R137
137   139    1
SMALL
USER_CHARGES


@<TRIPOS>ATOM
      1 CA         23.1334   -4.3458   -2.9326 C.3       0 UNK        -0.2020 
      2 C          24.1554   -3.5006   -2.1886 C.2       0 UNK         0.4855 
      3 O          23.7713   -2.6451   -1.3908 O.2       0 UNK        -0.5197 
      4 N          25.4518   -3.7275   -2.4463 N.am      1 UNK        -0.4892 
      5 CA         26.5838   -3.0170   -1.8384 C.3       1 UNK         0.0835 
      6 C6         27.9346   -3.6473   -2.2550 C.3       12 UNK        -0.0855 
      7 S7         29.2394   -3.3765   -1.0084 S.3       12 UNK        -0.2931 
      8 C8         30.3647   -4.7695   -1.3539 C.3       12 UNK         0.0378 
      9 C9         31.0539   -4.5977   -2.6989 C.ar      12 UNK        -0.0802 
     10 C10        32.2343   -3.8549   -2.7940 C.ar      12 UNK        -0.0944 
     11 C11        32.8371   -3.6355   -4.0363 C.ar      12 UNK        -0.0787 
     12 C12        32.2520   -4.1691   -5.1886 C.ar      12 UNK        -0.0862 
     13 C13        31.0666   -4.9074   -5.1050 C.ar      12 UNK        -0.0733 
     14 C14        30.4886   -5.1430   -3.8550 C.ar      12 UNK        -0.0832 
     15 C15        30.3596   -5.3739   -6.3715 C.3       12 UNK         0.0240 
     16 S16        28.8030   -4.4573   -6.6557 S.3       12 UNK        -0.2522 
     17 C17        29.3415   -2.7454   -6.3283 C.3       12 UNK        -0.0967 
     18 CA         28.3849   -1.6585   -6.8648 C.3       5 UNK         0.0660 
     19 N          27.0021   -1.8533   -6.4066 N.am      5 UNK        -0.4015 
     20 C          25.9570   -1.0312   -6.5856 C.2       4 UNK         0.4946 
     21 O          26.0432    0.1021   -7.0619 O.2       4 UNK        -0.5353 
     22 CA         24.5741   -1.5557   -6.1856 C.3       4 UNK         0.0277 
     23 CB         24.4948   -3.0892   -6.0397 C.3       4 UNK        -0.1981 
     24 N          24.1581   -0.9102   -4.9422 N.am      4 UNK        -0.4209 
     25 C          22.9388   -0.3968   -4.7221 C.2       3 UNK         0.4942 
     26 O          22.0357   -0.4191   -5.5602 O.2       3 UNK        -0.5208 
     27 CA         22.6431    0.2310   -3.3452 C.3       3 UNK         0.0250 
     28 CB         21.4013   -0.4130   -2.7024 C.3       3 UNK        -0.1990 
     29 N          23.7632    0.1183   -2.4095 N.am      3 UNK        -0.4232 
     30 C          24.7030    1.0548   -2.2202 C.2       2 UNK         0.4993 
     31 O          24.7099    2.1442   -2.7927 O.2       2 UNK        -0.5286 
     32 CA         25.8402    0.7171   -1.2366 C.3       2 UNK         0.0209 
     33 CB         25.5127    1.2616    0.1630 C.3       2 UNK        -0.1931 
     34 N          26.1349   -0.7155   -1.1377 N.am      2 UNK        -0.4546 
     35 C          26.5210   -1.5060   -2.1495 C.2       1 UNK         0.5154 
     36 O          26.7371   -1.1015   -3.2969 O.2       1 UNK        -0.5181 
     37 C          28.9947   -0.2813   -6.5464 C.2       5 UNK         0.5014 
     38 O          29.8052    0.1959   -7.3382 O.2       5 UNK        -0.5248 
     39 N          28.5962    0.3340   -5.4229 N.am      6 UNK        -0.4434 
     40 CA         29.0229    1.6770   -5.0187 C.3       6 UNK         0.0363 
     41 CB         28.4402    1.9964   -3.6379 C.3       6 UNK        -0.1936 
     42 C          28.6550    2.7895   -6.0217 C.2       6 UNK         0.5081 
     43 O          29.3384    3.8142   -6.0506 O.2       6 UNK        -0.5248 
     44 N          27.6002    2.5720   -6.8184 N.am      7 UNK        -0.4718 
     45 CA         27.1767    3.4543   -7.9055 C.3       7 UNK         0.0273 
     46 CB         25.7296    3.9058   -7.6481 C.3       7 UNK        -0.1935 
     47 C          27.2830    2.7612   -9.2732 C.2       7 UNK         0.5018 
     48 O          27.6167    3.4239  -10.2560 O.2       7 UNK        -0.5186 
     49 N          26.9724    1.4584   -9.3282 N.am      8 UNK        -0.4240 
     50 CA         26.8687    0.6814  -10.5655 C.3       8 UNK         0.0235 
     51 CB         25.9390   -0.5197  -10.3201 C.3       8 UNK        -0.2000 
     52 C          28.2121    0.1971  -11.1373 C.2       8 UNK         0.4941 
     53 O          28.2353   -0.2152  -12.2985 O.2       8 UNK        -0.5273 
     54 N          29.2870    0.2121  -10.3399 N.am      9 UNK        -0.4262 
     55 CA         30.6044   -0.3025  -10.7126 C.3       9 UNK         0.0264 
     56 CB         30.7827   -1.7030  -10.0910 C.3       9 UNK        -0.1955 
     57 C          31.7060    0.6659  -10.2602 C.2       9 UNK         0.5031 
     58 O          31.4216    1.7051   -9.6591 O.2       9 UNK        -0.5390 
     59 N          32.9623    0.2886  -10.5384 N.am      10 UNK        -0.4204 
     60 CA         34.1802    1.0257  -10.1756 C.3       10 UNK         0.0237 
     61 CB         35.3937    0.3359  -10.8215 C.3       10 UNK        -0.1985 
     62 C          34.4030    1.1992   -8.6593 C.2       10 UNK         0.4970 
     63 O          35.1972    2.0557   -8.2682 O.2       10 UNK        -0.4914 
     64 N          33.6997    0.4063   -7.8394 N.am      11 UNK        -0.4285 
     65 CA         33.6104    0.5736   -6.3826 C.3       11 UNK         0.1007 
     66 C          32.8499    1.8612   -5.9380 C.2       11 UNK         0.5703 
     67 N          32.0693    2.5043   -6.7996 N.am      11 UNK        -0.7361 
     68 O          32.9804    2.2907   -4.7947 O.2       11 UNK        -0.4986 
     69 C69        33.0278   -0.7035   -5.7131 C.3       12 UNK        -0.0947 
     70 S70        33.7360   -1.0158   -4.0605 S.3       12 UNK        -0.2240 
     71 C71        34.1048   -2.7984   -4.1291 C.3       12 UNK         0.0194 
     72 H72        22.4844   -3.7073   -3.5312 H         1 UNK         0.0906 
     73 H73        23.6050   -5.0701   -3.5963 H         1 UNK         0.0906 
     74 H74        22.5122   -4.8912   -2.2228 H         1 UNK         0.0906 
     75 H75        25.6981   -4.4464   -3.1108 H         1 UNK         0.3140 
     76 H76        26.4721   -3.1504   -0.7598 H         1 UNK         0.1085 
     77 H77        27.8134   -4.7260   -2.3642 H         1 UNK         0.0836 
     78 H78        28.2721   -3.2844   -3.2275 H         1 UNK         0.0836 
     79 H79        31.1116   -4.8259   -0.5605 H         1 UNK         0.0731 
     80 H80        29.8136   -5.7106   -1.3195 H         1 UNK         0.0731 
     81 H81        32.6699   -3.4220   -1.9036 H         1 UNK         0.1312 
     82 H82        32.7005   -3.9798   -6.1541 H         1 UNK         0.1406 
     83 H83        29.5654   -5.7027   -3.7936 H         1 UNK         0.1631 
     84 H84        30.1409   -6.4401   -6.2988 H         1 UNK         0.0717 
     85 H85        31.0056   -5.2499   -7.2421 H         1 UNK         0.0717 
     86 H86        29.4725   -2.6326   -5.2498 H         1 UNK         0.0934 
     87 H87        30.3327   -2.6170   -6.7684 H         1 UNK         0.0934 
     88 H88        28.3555   -1.7427   -7.9530 H         1 UNK         0.0739 
     89 H89        26.8212   -2.7561   -5.9939 H         1 UNK         0.3093 
     90 H90        23.9071   -1.2658   -7.0004 H         1 UNK         0.0818 
     91 H91        23.4682   -3.4077   -5.8595 H         1 UNK         0.0819 
     92 H92        24.8241   -3.5897   -6.9516 H         1 UNK         0.0819 
     93 H93        25.1054   -3.4587   -5.2172 H         1 UNK         0.0819 
     94 H94        24.8779   -0.8057   -4.2350 H         1 UNK         0.3041 
     95 H95        22.4180    1.2852   -3.5200 H         1 UNK         0.0784 
     96 H96        20.5212   -0.2896   -3.3349 H         1 UNK         0.0793 
     97 H97        21.5378   -1.4824   -2.5397 H         1 UNK         0.0793 
     98 H98        21.1712    0.0448   -1.7402 H         1 UNK         0.0793 
     99 H99        23.8382   -0.7622   -1.9050 H         1 UNK         0.3024 
    100 H100       26.7415    1.2173   -1.5875 H         1 UNK         0.1171 
    101 H101       25.3145    2.3340    0.1279 H         1 UNK         0.0786 
    102 H102       26.3433    1.1110    0.8529 H         1 UNK         0.0786 
    103 H103       24.6302    0.7810    0.5874 H         1 UNK         0.0786 
    104 H104       25.9378   -1.1468   -0.2457 H         1 UNK         0.2977 
    105 H105       27.9285   -0.1366   -4.8208 H         1 UNK         0.3127 
    106 H106       30.1094    1.6583   -4.9295 H         1 UNK         0.0770 
    107 H107       27.3517    2.0417   -3.6749 H         1 UNK         0.0814 
    108 H108       28.7958    2.9626   -3.2774 H         1 UNK         0.0814 
    109 H109       28.7321    1.2465   -2.9025 H         1 UNK         0.0814 
    110 H110       27.0965    1.6946   -6.7225 H         1 UNK         0.2983 
    111 H111       27.8091    4.3440   -7.9465 H         1 UNK         0.0947 
    112 H112       25.3759    4.5606   -8.4458 H         1 UNK         0.0806 
    113 H113       25.6505    4.4614   -6.7135 H         1 UNK         0.0806 
    114 H114       25.0455    3.0577   -7.5916 H         1 UNK         0.0806 
    115 H115       26.6724    0.9871   -8.4766 H         1 UNK         0.3000 
    116 H116       26.4050    1.3129  -11.3267 H         1 UNK         0.0850 
    117 H117       25.7554   -1.0670  -11.2457 H         1 UNK         0.0810 
    118 H118       24.9696   -0.2024   -9.9349 H         1 UNK         0.0810 
    119 H119       26.3704   -1.2240   -9.6083 H         1 UNK         0.0810 
    120 H120       29.2335    0.6206   -9.4124 H         1 UNK         0.3040 
    121 H121       30.6839   -0.3836  -11.7987 H         1 UNK         0.0766 
    122 H122       31.6943   -2.1868  -10.4424 H         1 UNK         0.0812 
    123 H123       29.9546   -2.3612  -10.3549 H         1 UNK         0.0812 
    124 H124       30.8355   -1.6576   -9.0035 H         1 UNK         0.0812 
    125 H125       33.1019   -0.5749  -11.0436 H         1 UNK         0.3205 
    126 H126       34.0918    2.0287  -10.5983 H         1 UNK         0.0754 
    127 H127       36.3148    0.8784  -10.6031 H         1 UNK         0.0769 
    128 H128       35.2970    0.2940  -11.9067 H         1 UNK         0.0769 
    129 H129       35.5217   -0.6833  -10.4543 H         1 UNK         0.0769 
    130 H130       33.0559   -0.2512   -8.2501 H         1 UNK         0.2981 
    131 H131       34.6385    0.6967   -6.0361 H         1 UNK         0.0541 
    132 H132       31.9080    2.1382   -7.7320 H         1 UNK         0.3459 
    133 H133       31.5495    3.3116   -6.4894 H         1 UNK         0.3459 
    134 H134       33.2373   -1.5749   -6.3341 H         1 UNK         0.0612 
    135 H135       31.9404   -0.6571   -5.6324 H         1 UNK         0.0612 
    136 H136       34.7658   -3.0504   -3.2986 H         1 UNK         0.0624 
    137 H137       34.6606   -3.0276   -5.0397 H         1 UNK         0.0624 
@<TRIPOS>BOND
     1    1    2 1    
     2    1   72 1    
     3    1   73 1    
     4    1   74 1    
     5    2    3 2    
     6    2    4 am   BACKBONE|DICT|INTERRES
     7    4    5 1    
     8    4   75 1    
     9    5    6 1    
    10    5   35 1    
    11    5   76 1    
    12    6    7 1    
    13    6   77 1    
    14    6   78 1    
    15    7    8 1    
    16    8    9 1    
    17    8   79 1    
    18    8   80 1    
    19    9   10 ar   
    20    9   14 ar   
    21   10   11 ar   
    22   10   81 1    
    23   11   12 ar   
    24   11   71 1    
    25   12   13 ar   
    26   12   82 1    
    27   13   14 ar   
    28   13   15 1    
    29   14   83 1    
    30   15   16 1    
    31   15   84 1    
    32   15   85 1    
    33   16   17 1    
    34   17   18 1    
    35   17   86 1    
    36   17   87 1    
    37   18   19 1    
    38   18   37 1    
    39   18   88 1    
    40   19   20 am   BACKBONE|DICT|INTERRES
    41   19   89 1    
    42   20   21 2    
    43   20   22 1    
    44   22   23 1    
    45   22   24 1    
    46   22   90 1    
    47   23   91 1    
    48   23   92 1    
    49   23   93 1    
    50   24   25 am   BACKBONE|DICT|INTERRES
    51   24   94 1    
    52   25   26 2    
    53   25   27 1    
    54   27   28 1    
    55   27   29 1    
    56   27   95 1    
    57   28   96 1    
    58   28   97 1    
    59   28   98 1    
    60   29   30 am   BACKBONE|DICT|INTERRES
    61   29   99 1    
    62   30   31 2    
    63   30   32 1    
    64   32   33 1    
    65   32   34 1    
    66   32  100 1    
    67   33  101 1    
    68   33  102 1    
    69   33  103 1    
    70   34   35 am   BACKBONE|DICT|INTERRES
    71   34  104 1    
    72   35   36 2    
    73   37   38 2    
    74   37   39 am   BACKBONE|DICT|INTERRES
    75   39   40 1    
    76   39  105 1    
    77   40   41 1    
    78   40   42 1    
    79   40  106 1    
    80   41  107 1    
    81   41  108 1    
    82   41  109 1    
    83   42   43 2    
    84   42   44 am   BACKBONE|DICT|INTERRES
    85   44   45 1    
    86   44  110 1    
    87   45   46 1    
    88   45   47 1    
    89   45  111 1    
    90   46  112 1    
    91   46  113 1    
    92   46  114 1    
    93   47   48 2    
    94   47   49 am   BACKBONE|DICT|INTERRES
    95   49   50 1    
    96   49  115 1    
    97   50   51 1    
    98   50   52 1    
    99   50  116 1    
   100   51  117 1    
   101   51  118 1    
   102   51  119 1    
   103   52   53 2    
   104   52   54 am   BACKBONE|DICT|INTERRES
   105   54   55 1    
   106   54  120 1    
   107   55   56 1    
   108   55   57 1    
   109   55  121 1    
   110   56  122 1    
   111   56  123 1    
   112   56  124 1    
   113   57   58 2    
   114   57   59 am   BACKBONE|DICT|INTERRES
   115   59   60 1    
   116   59  125 1    
   117   60   61 1    
   118   60   62 1    
   119   60  126 1    
   120   61  127 1    
   121   61  128 1    
   122   61  129 1    
   123   62   63 2    
   124   62   64 am   BACKBONE|DICT|INTERRES
   125   64   65 1    
   126   64  130 1    
   127   65   66 1    
   128   65   69 1    
   129   65  131 1    
   130   66   67 am   BACKBONE|DICT|INTERRES
   131   66   68 2    
   132   67  132 1    
   133   67  133 1    
   134   69   70 1    
   135   69  134 1    
   136   69  135 1    
   137   70   71 1    
   138   71  136 1    
   139   71  137 1    
@<TRIPOS>SUBSTRUCTURE
     1 UNK         1 GROUP             0       ****    0 ROOT    
