@<TRIPOS>MOLECULE
3R137
137   139    1
SMALL
USER_CHARGES


@<TRIPOS>ATOM
      1 CA         27.1158   -4.7932    2.2083 C.3       0 UNK        -0.2020 
      2 C          26.9542   -4.7882    0.6955 C.2       0 UNK         0.4855 
      3 O          26.2711   -5.6580    0.1549 O.2       0 UNK        -0.5197 
      4 N          27.5741   -3.8105    0.0182 N.am      1 UNK        -0.4892 
      5 CA         27.5705   -3.6202   -1.4433 C.3       1 UNK         0.0835 
      6 C6         28.2993   -4.7536   -2.2223 C.3       12 UNK        -0.0855 
      7 S7         30.0214   -4.9923   -1.6511 S.3       12 UNK        -0.2931 
      8 C8         31.0161   -4.4430   -3.0866 C.3       12 UNK         0.0378 
      9 C9         30.8926   -2.9615   -3.4495 C.ar      12 UNK        -0.0802 
     10 C10        31.1296   -2.5674   -4.7709 C.ar      12 UNK        -0.0944 
     11 C11        31.0138   -1.2264   -5.1499 C.ar      12 UNK        -0.0787 
     12 C12        30.6436   -0.2736   -4.1976 C.ar      12 UNK        -0.0862 
     13 C13        30.4018   -0.6477   -2.8741 C.ar      12 UNK        -0.0733 
     14 C14        30.5654   -1.9847   -2.5007 C.ar      12 UNK        -0.0832 
     15 C15        29.9500    0.3777   -1.8435 C.3       12 UNK         0.0240 
     16 S16        28.1780    0.1780   -1.4599 S.3       12 UNK        -0.2522 
     17 C17        27.3942    1.5599   -2.3597 C.3       12 UNK        -0.0967 
     18 CA         27.4759    1.4632   -3.9034 C.3       5 UNK         0.0660 
     19 N          27.0211    0.1734   -4.4309 N.am      5 UNK        -0.4015 
     20 C          27.2945   -0.2683   -5.6681 C.2       4 UNK         0.4946 
     21 O          27.9528    0.3671   -6.4895 O.2       4 UNK        -0.5353 
     22 CA         26.6986   -1.6207   -6.0885 C.3       4 UNK         0.0277 
     23 CB         27.6415   -2.7633   -5.6882 C.3       4 UNK        -0.1981 
     24 N          25.3625   -1.8435   -5.5322 N.am      4 UNK        -0.4209 
     25 C          24.2959   -1.0903   -5.8464 C.2       3 UNK         0.4942 
     26 O          24.3300   -0.1815   -6.6760 O.2       3 UNK        -0.5208 
     27 CA         22.9856   -1.3401   -5.0794 C.3       3 UNK         0.0250 
     28 CB         22.0605   -2.2638   -5.8868 C.3       3 UNK        -0.1990 
     29 N          23.1702   -1.8920   -3.7346 N.am      3 UNK        -0.4232 
     30 C          23.8843   -1.3280   -2.7502 C.2       2 UNK         0.4993 
     31 O          24.4799   -0.2549   -2.8652 O.2       2 UNK        -0.5286 
     32 CA         24.0022   -2.1100   -1.4297 C.3       2 UNK         0.0209 
     33 CB         23.0340   -3.3099   -1.3104 C.3       2 UNK        -0.1931 
     34 N          25.3806   -2.5489   -1.1856 N.am      2 UNK        -0.4546 
     35 C          26.1612   -3.2920   -1.9889 C.2       1 UNK         0.5154 
     36 O          25.8137   -3.6936   -3.1024 O.2       1 UNK        -0.5181 
     37 C          26.7369    2.6426   -4.5633 C.2       5 UNK         0.5014 
     38 O          27.3336    3.7073   -4.7295 O.2       5 UNK        -0.5248 
     39 N          25.4670    2.4334   -4.9411 N.am      6 UNK        -0.4434 
     40 CA         24.6739    3.3893   -5.7143 C.3       6 UNK         0.0363 
     41 CB         23.1831    3.0254   -5.6201 C.3       6 UNK        -0.1936 
     42 C          25.1334    3.4606   -7.1808 C.2       6 UNK         0.5081 
     43 O          25.2129    4.5575   -7.7345 O.2       6 UNK        -0.5248 
     44 N          25.4274    2.2977   -7.7803 N.am      7 UNK        -0.4718 
     45 CA         25.9069    2.1718   -9.1580 C.3       7 UNK         0.0273 
     46 CB         25.8027    0.7043   -9.6053 C.3       7 UNK        -0.1935 
     47 C          27.3407    2.6919   -9.3550 C.2       7 UNK         0.5018 
     48 O          27.5961    3.3665  -10.3532 O.2       7 UNK        -0.5186 
     49 N          28.2404    2.3513   -8.4171 N.am      8 UNK        -0.4240 
     50 CA         29.6863    2.6166   -8.4276 C.3       8 UNK         0.0235 
     51 CB         29.9687    4.1229   -8.2483 C.3       8 UNK        -0.2000 
     52 C          30.3775    2.0056   -9.6650 C.2       8 UNK         0.4941 
     53 O          31.1348    2.6906  -10.3549 O.2       8 UNK        -0.5273 
     54 N          30.0414    0.7382   -9.9453 N.am      9 UNK        -0.4262 
     55 CA         30.4231   -0.0024  -11.1473 C.3       9 UNK         0.0264 
     56 CB         29.3269   -1.0463  -11.4486 C.3       9 UNK        -0.1955 
     57 C          31.8393   -0.6015  -11.0391 C.2       9 UNK         0.5031 
     58 O          32.8213    0.1257  -11.1934 O.2       9 UNK        -0.5390 
     59 N          31.9282   -1.9203  -10.8050 N.am      10 UNK        -0.4204 
     60 CA         33.1565   -2.7301  -10.8382 C.3       10 UNK         0.0237 
     61 CB         32.7869   -4.2043  -10.6035 C.3       10 UNK        -0.1985 
     62 C          34.2680   -2.2985   -9.8625 C.2       10 UNK         0.4970 
     63 O          35.4335   -2.6198  -10.0974 O.2       10 UNK        -0.4914 
     64 N          33.8919   -1.5803   -8.8007 N.am      11 UNK        -0.4285 
     65 CA         34.7970   -0.9278   -7.8473 C.3       11 UNK         0.1007 
     66 C          35.5603    0.3074   -8.4143 C.2       11 UNK         0.5703 
     67 N          35.1867    0.8597   -9.5638 N.am      11 UNK        -0.7361 
     68 O          36.5237    0.7629   -7.8023 O.2       11 UNK        -0.4986 
     69 C69        34.0629   -0.6044   -6.5192 C.3       12 UNK        -0.0947 
     70 S70        32.5742    0.4288   -6.7538 S.3       12 UNK        -0.2240 
     71 C71        31.2478   -0.8086   -6.5949 C.3       12 UNK         0.0194 
     72 H72        27.5782   -5.7253    2.5320 H         1 UNK         0.0906 
     73 H73        27.7375   -3.9685    2.5567 H         1 UNK         0.0906 
     74 H74        26.1418   -4.7107    2.6900 H         1 UNK         0.0906 
     75 H75        28.1233   -3.1366    0.5341 H         1 UNK         0.3140 
     76 H76        28.1304   -2.7059   -1.6213 H         1 UNK         0.1085 
     77 H77        28.3109   -4.5469   -3.2927 H         1 UNK         0.0836 
     78 H78        27.7646   -5.6980   -2.1095 H         1 UNK         0.0836 
     79 H79        30.7435   -5.0602   -3.9443 H         1 UNK         0.0731 
     80 H80        32.0653   -4.6553   -2.8774 H         1 UNK         0.0731 
     81 H81        31.3988   -3.3100   -5.5098 H         1 UNK         0.1312 
     82 H82        30.5462    0.7596   -4.4978 H         1 UNK         0.1406 
     83 H83        30.4076   -2.2627   -1.4684 H         1 UNK         0.1631 
     84 H84        30.1533    1.3942   -2.1835 H         1 UNK         0.0717 
     85 H85        30.5254    0.2430   -0.9265 H         1 UNK         0.0717 
     86 H86        26.3509    1.5995   -2.0397 H         1 UNK         0.0934 
     87 H87        27.8468    2.4914   -2.0137 H         1 UNK         0.0934 
     88 H88        28.5220    1.5791   -4.1823 H         1 UNK         0.0739 
     89 H89        26.4114   -0.3638   -3.8267 H         1 UNK         0.3093 
     90 H90        26.6059   -1.6243   -7.1764 H         1 UNK         0.0818 
     91 H91        27.2008   -3.7408   -5.8840 H         1 UNK         0.0819 
     92 H92        28.5728   -2.7072   -6.2526 H         1 UNK         0.0819 
     93 H93        27.9031   -2.7124   -4.6316 H         1 UNK         0.0819 
     94 H94        25.2743   -2.5569   -4.8154 H         1 UNK         0.3041 
     95 H95        22.4909   -0.3732   -4.9670 H         1 UNK         0.0784 
     96 H96        21.8856   -1.8632   -6.8866 H         1 UNK         0.0793 
     97 H97        22.4880   -3.2604   -6.0052 H         1 UNK         0.0793 
     98 H98        21.0867   -2.3691   -5.4082 H         1 UNK         0.0793 
     99 H99        22.7472   -2.7909   -3.5539 H         1 UNK         0.3024 
    100 H100       23.7510   -1.4004   -0.6396 H         1 UNK         0.1171 
    101 H101       23.1031   -3.7649   -0.3221 H         1 UNK         0.0786 
    102 H102       21.9969   -2.9985   -1.4431 H         1 UNK         0.0786 
    103 H103       23.2477   -4.0913   -2.0408 H         1 UNK         0.0786 
    104 H104       25.7825   -2.2466   -0.3092 H         1 UNK         0.2977 
    105 H105       25.0504    1.5309   -4.7572 H         1 UNK         0.3127 
    106 H106       24.8066    4.3801   -5.2739 H         1 UNK         0.0770 
    107 H107       22.9722    2.0492   -6.0571 H         1 UNK         0.0814 
    108 H108       22.5723    3.7564   -6.1515 H         1 UNK         0.0814 
    109 H109       22.8424    3.0105   -4.5847 H         1 UNK         0.0814 
    110 H110       25.2590    1.4321   -7.2750 H         1 UNK         0.2983 
    111 H111       25.2501    2.7669   -9.7965 H         1 UNK         0.0947 
    112 H112       26.4241    0.0500   -8.9935 H         1 UNK         0.0806 
    113 H113       26.1247    0.5874  -10.6410 H         1 UNK         0.0806 
    114 H114       24.7760    0.3430   -9.5418 H         1 UNK         0.0806 
    115 H115       27.9295    1.7441   -7.6588 H         1 UNK         0.3000 
    116 H116       30.0968    2.1020   -7.5579 H         1 UNK         0.0850 
    117 H117       29.4850    4.5105   -7.3515 H         1 UNK         0.0810 
    118 H118       29.6158    4.7064   -9.0992 H         1 UNK         0.0810 
    119 H119       31.0386    4.3086   -8.1469 H         1 UNK         0.0810 
    120 H120       29.4148    0.2693   -9.3076 H         1 UNK         0.3040 
    121 H121       30.4464    0.6935  -11.9889 H         1 UNK         0.0766 
    122 H122       29.5750   -1.6384  -12.3310 H         1 UNK         0.0812 
    123 H123       28.3750   -0.5573  -11.6578 H         1 UNK         0.0812 
    124 H124       29.1631   -1.7330  -10.6172 H         1 UNK         0.0812 
    125 H125       31.0650   -2.4324  -10.6943 H         1 UNK         0.3205 
    126 H126       33.5712   -2.6394  -11.8443 H         1 UNK         0.0754 
    127 H127       33.6706   -4.8426  -10.6518 H         1 UNK         0.0769 
    128 H128       32.0902   -4.5660  -11.3602 H         1 UNK         0.0769 
    129 H129       32.3301   -4.3547   -9.6244 H         1 UNK         0.0769 
    130 H130       32.9195   -1.3313   -8.7140 H         1 UNK         0.2981 
    131 H131       35.5740   -1.6551   -7.6044 H         1 UNK         0.0541 
    132 H132       35.6972    1.6536   -9.9148 H         1 UNK         0.3459 
    133 H133       34.3794    0.5157  -10.0755 H         1 UNK         0.3459 
    134 H134       33.7804   -1.5336   -6.0225 H         1 UNK         0.0612 
    135 H135       34.7297   -0.0956   -5.8210 H         1 UNK         0.0612 
    136 H136       30.3295   -0.3826   -6.9941 H         1 UNK         0.0624 
    137 H137       31.4761   -1.6726   -7.2199 H         1 UNK         0.0624 
@<TRIPOS>BOND
     1    1    2 1    
     2    1   72 1    
     3    1   73 1    
     4    1   74 1    
     5    2    3 2    
     6    2    4 am   BACKBONE|DICT|INTERRES
     7    4    5 1    
     8    4   75 1    
     9    5    6 1    
    10    5   35 1    
    11    5   76 1    
    12    6    7 1    
    13    6   77 1    
    14    6   78 1    
    15    7    8 1    
    16    8    9 1    
    17    8   79 1    
    18    8   80 1    
    19    9   10 ar   
    20    9   14 ar   
    21   10   11 ar   
    22   10   81 1    
    23   11   12 ar   
    24   11   71 1    
    25   12   13 ar   
    26   12   82 1    
    27   13   14 ar   
    28   13   15 1    
    29   14   83 1    
    30   15   16 1    
    31   15   84 1    
    32   15   85 1    
    33   16   17 1    
    34   17   18 1    
    35   17   86 1    
    36   17   87 1    
    37   18   19 1    
    38   18   37 1    
    39   18   88 1    
    40   19   20 am   BACKBONE|DICT|INTERRES
    41   19   89 1    
    42   20   21 2    
    43   20   22 1    
    44   22   23 1    
    45   22   24 1    
    46   22   90 1    
    47   23   91 1    
    48   23   92 1    
    49   23   93 1    
    50   24   25 am   BACKBONE|DICT|INTERRES
    51   24   94 1    
    52   25   26 2    
    53   25   27 1    
    54   27   28 1    
    55   27   29 1    
    56   27   95 1    
    57   28   96 1    
    58   28   97 1    
    59   28   98 1    
    60   29   30 am   BACKBONE|DICT|INTERRES
    61   29   99 1    
    62   30   31 2    
    63   30   32 1    
    64   32   33 1    
    65   32   34 1    
    66   32  100 1    
    67   33  101 1    
    68   33  102 1    
    69   33  103 1    
    70   34   35 am   BACKBONE|DICT|INTERRES
    71   34  104 1    
    72   35   36 2    
    73   37   38 2    
    74   37   39 am   BACKBONE|DICT|INTERRES
    75   39   40 1    
    76   39  105 1    
    77   40   41 1    
    78   40   42 1    
    79   40  106 1    
    80   41  107 1    
    81   41  108 1    
    82   41  109 1    
    83   42   43 2    
    84   42   44 am   BACKBONE|DICT|INTERRES
    85   44   45 1    
    86   44  110 1    
    87   45   46 1    
    88   45   47 1    
    89   45  111 1    
    90   46  112 1    
    91   46  113 1    
    92   46  114 1    
    93   47   48 2    
    94   47   49 am   BACKBONE|DICT|INTERRES
    95   49   50 1    
    96   49  115 1    
    97   50   51 1    
    98   50   52 1    
    99   50  116 1    
   100   51  117 1    
   101   51  118 1    
   102   51  119 1    
   103   52   53 2    
   104   52   54 am   BACKBONE|DICT|INTERRES
   105   54   55 1    
   106   54  120 1    
   107   55   56 1    
   108   55   57 1    
   109   55  121 1    
   110   56  122 1    
   111   56  123 1    
   112   56  124 1    
   113   57   58 2    
   114   57   59 am   BACKBONE|DICT|INTERRES
   115   59   60 1    
   116   59  125 1    
   117   60   61 1    
   118   60   62 1    
   119   60  126 1    
   120   61  127 1    
   121   61  128 1    
   122   61  129 1    
   123   62   63 2    
   124   62   64 am   BACKBONE|DICT|INTERRES
   125   64   65 1    
   126   64  130 1    
   127   65   66 1    
   128   65   69 1    
   129   65  131 1    
   130   66   67 am   BACKBONE|DICT|INTERRES
   131   66   68 2    
   132   67  132 1    
   133   67  133 1    
   134   69   70 1    
   135   69  134 1    
   136   69  135 1    
   137   70   71 1    
   138   71  136 1    
   139   71  137 1    
@<TRIPOS>SUBSTRUCTURE
     1 UNK         1 GROUP             0       ****    0 ROOT    
