@<TRIPOS>MOLECULE
3R137
137   139    1
SMALL
USER_CHARGES


@<TRIPOS>ATOM
      1 CA         26.5353   -6.4615   -4.0660 C.3       0 UNK        -0.2020 
      2 C          26.4319   -5.9468   -2.6391 C.2       0 UNK         0.4855 
      3 O          25.4688   -6.2692   -1.9434 O.2       0 UNK        -0.5197 
      4 N          27.4240   -5.1638   -2.1927 N.am      1 UNK        -0.4892 
      5 CA         27.5214   -4.6408   -0.8206 C.3       1 UNK         0.0835 
      6 C6         28.9288   -4.0810   -0.4976 C.3       12 UNK        -0.0855 
      7 S7         30.2520   -5.2976   -0.8325 S.3       12 UNK        -0.2931 
      8 C8         31.6767   -4.2331   -1.2415 C.3       12 UNK         0.0378 
      9 C9         31.3975   -3.2829   -2.3997 C.ar      12 UNK        -0.0802 
     10 C10        31.5148   -1.9019   -2.2130 C.ar      12 UNK        -0.0944 
     11 C11        31.2480   -1.0159   -3.2604 C.ar      12 UNK        -0.0787 
     12 C12        30.8477   -1.5220   -4.5001 C.ar      12 UNK        -0.0862 
     13 C13        30.7296   -2.9010   -4.7015 C.ar      12 UNK        -0.0733 
     14 C14        31.0189   -3.7775   -3.6519 C.ar      12 UNK        -0.0832 
     15 C15        30.3025   -3.4419   -6.0583 C.3       12 UNK         0.0240 
     16 S16        28.6552   -4.2219   -6.0381 S.3       12 UNK        -0.2522 
     17 C17        27.5651   -2.9129   -5.3857 C.3       12 UNK        -0.0967 
     18 CA         27.0199   -1.9580   -6.4807 C.3       5 UNK         0.0660 
     19 N          25.6631   -1.4974   -6.1756 N.am      5 UNK        -0.4015 
     20 C          24.8494   -0.8756   -7.0419 C.2       4 UNK         0.4946 
     21 O          25.1325   -0.6712   -8.2216 O.2       4 UNK        -0.5353 
     22 CA         23.5112   -0.3520   -6.4888 C.3       4 UNK         0.0277 
     23 CB         22.4399   -1.4528   -6.5360 C.3       4 UNK        -0.1981 
     24 N          23.6227    0.1676   -5.1227 N.am      4 UNK        -0.4209 
     25 C          24.3617    1.2323   -4.7786 C.2       3 UNK         0.4942 
     26 O          24.9512    1.9399   -5.5929 O.2       3 UNK        -0.5208 
     27 CA         24.5189    1.5340   -3.2771 C.3       3 UNK         0.0250 
     28 CB         23.4796    2.5740   -2.8301 C.3       3 UNK        -0.1990 
     29 N          24.4411    0.3575   -2.4019 N.am      3 UNK        -0.4232 
     30 C          25.2220   -0.7292   -2.4824 C.2       2 UNK         0.4993 
     31 O          26.0844   -0.8959   -3.3514 O.2       2 UNK        -0.5286 
     32 CA         24.9507   -1.8311   -1.4524 C.3       2 UNK         0.0209 
     33 CB         23.5934   -2.5120   -1.7142 C.3       2 UNK        -0.1931 
     34 N          26.0097   -2.8332   -1.5226 N.am      2 UNK        -0.4546 
     35 C          26.4351   -3.5907   -0.5045 C.2       1 UNK         0.5154 
     36 O          25.9972   -3.4985    0.6436 O.2       1 UNK        -0.5181 
     37 C          27.9550   -0.7545   -6.6910 C.2       5 UNK         0.5014 
     38 O          28.7085   -0.7273   -7.6656 O.2       5 UNK        -0.5248 
     39 N          27.8604    0.2340   -5.7871 N.am      6 UNK        -0.4434 
     40 CA         28.5971    1.4980   -5.8536 C.3       6 UNK         0.0363 
     41 CB         28.3109    2.3415   -4.6010 C.3       6 UNK        -0.1936 
     42 C          28.2929    2.2943   -7.1318 C.2       6 UNK         0.5081 
     43 O          29.2218    2.8044   -7.7520 O.2       6 UNK        -0.5248 
     44 N          27.0145    2.3523   -7.5262 N.am      7 UNK        -0.4718 
     45 CA         26.5631    2.9668   -8.7748 C.3       7 UNK         0.0273 
     46 CB         25.0294    3.0711   -8.7714 C.3       7 UNK        -0.1935 
     47 C          27.0555    2.2178  -10.0250 C.2       7 UNK         0.5018 
     48 O          27.5023    2.8644  -10.9730 O.2       7 UNK        -0.5186 
     49 N          26.9615    0.8802  -10.0108 N.am      8 UNK        -0.4240 
     50 CA         27.3334    0.0169  -11.1334 C.3       8 UNK         0.0235 
     51 CB         26.7634   -1.3945  -10.9158 C.3       8 UNK        -0.2000 
     52 C          28.8477   -0.0490  -11.3848 C.2       8 UNK         0.4941 
     53 O          29.2747    0.1169  -12.5282 O.2       8 UNK        -0.5273 
     54 N          29.6272   -0.3178  -10.3294 N.am      9 UNK        -0.4262 
     55 CA         31.0647   -0.5951  -10.4237 C.3       9 UNK         0.0264 
     56 CB         31.4048   -1.7356   -9.4488 C.3       9 UNK        -0.1955 
     57 C          31.9491    0.6251  -10.1228 C.2       9 UNK         0.5031 
     58 O          33.1731    0.4810  -10.1367 O.2       9 UNK        -0.5390 
     59 N          31.3448    1.7713   -9.7695 N.am      10 UNK        -0.4204 
     60 CA         31.9972    2.9909   -9.2590 C.3       10 UNK         0.0237 
     61 CB         32.8936    3.6327  -10.3403 C.3       10 UNK        -0.1985 
     62 C          32.7504    2.7686   -7.9262 C.2       10 UNK         0.4970 
     63 O          33.6120    3.5754   -7.5732 O.2       10 UNK        -0.4914 
     64 N          32.4339    1.6647   -7.2312 N.am      11 UNK        -0.4285 
     65 CA         33.1742    1.1095   -6.0888 C.3       11 UNK         0.1007 
     66 C          34.6396    0.6819   -6.4262 C.2       11 UNK         0.5703 
     67 N          34.9664    0.3932   -7.6825 N.am      11 UNK        -0.7361 
     68 O          35.4917    0.5852   -5.5467 O.2       11 UNK        -0.4986 
     69 C69        33.0240    1.9896   -4.8149 C.3       12 UNK        -0.0947 
     70 S70        33.1043    1.0386   -3.2571 S.3       12 UNK        -0.2240 
     71 C71        31.3835    0.4837   -3.0376 C.3       12 UNK         0.0194 
     72 H72        25.9391   -5.8440   -4.7369 H         1 UNK         0.0906 
     73 H73        27.5664   -6.4621   -4.4175 H         1 UNK         0.0906 
     74 H74        26.1650   -7.4846   -4.1263 H         1 UNK         0.0906 
     75 H75        28.2087   -4.9554   -2.7940 H         1 UNK         0.3140 
     76 H76        27.3409   -5.4810   -0.1459 H         1 UNK         0.1085 
     77 H77        28.9941   -3.7946    0.5540 H         1 UNK         0.0836 
     78 H78        29.1059   -3.1699   -1.0707 H         1 UNK         0.0836 
     79 H79        31.9661   -3.6806   -0.3461 H         1 UNK         0.0731 
     80 H80        32.5273   -4.8653   -1.4995 H         1 UNK         0.0731 
     81 H81        31.8156   -1.5113   -1.2503 H         1 UNK         0.1312 
     82 H82        30.6293   -0.8430   -5.3110 H         1 UNK         0.1406 
     83 H83        30.9307   -4.8450   -3.8038 H         1 UNK         0.1631 
     84 H84        31.0339   -4.1773   -6.3959 H         1 UNK         0.0717 
     85 H85        30.3046   -2.6524   -6.8066 H         1 UNK         0.0717 
     86 H86        26.7324   -3.4384   -4.9168 H         1 UNK         0.0934 
     87 H87        28.0505   -2.3783   -4.5670 H         1 UNK         0.0934 
     88 H88        26.9626   -2.5018   -7.4263 H         1 UNK         0.0739 
     89 H89        25.3970   -1.5301   -5.1992 H         1 UNK         0.3093 
     90 H90        23.1879    0.4685   -7.1331 H         1 UNK         0.0818 
     91 H91        21.4659   -1.0722   -6.2278 H         1 UNK         0.0819 
     92 H92        22.3272   -1.8422   -7.5489 H         1 UNK         0.0819 
     93 H93        22.6924   -2.2944   -5.8897 H         1 UNK         0.0819 
     94 H94        23.1535   -0.3477   -4.3925 H         1 UNK         0.3041 
     95 H95        25.5113    1.9669   -3.1402 H         1 UNK         0.0784 
     96 H96        23.5333    3.4706   -3.4498 H         1 UNK         0.0793 
     97 H97        22.4623    2.1873   -2.9042 H         1 UNK         0.0793 
     98 H98        23.6472    2.8865   -1.7992 H         1 UNK         0.0793 
     99 H99        23.7512    0.3992   -1.6651 H         1 UNK         0.3024 
    100 H100       24.9495   -1.3704   -0.4617 H         1 UNK         0.1171 
    101 H101       22.7680   -1.8027   -1.6448 H         1 UNK         0.0786 
    102 H102       23.3992   -3.2982   -0.9841 H         1 UNK         0.0786 
    103 H103       23.5555   -2.9657   -2.7055 H         1 UNK         0.0786 
    104 H104       26.4673   -2.9074   -2.4210 H         1 UNK         0.2977 
    105 H105       27.2191    0.1144   -5.0119 H         1 UNK         0.3127 
    106 H106       29.6607    1.2555   -5.8666 H         1 UNK         0.0770 
    107 H107       27.2946    2.7344   -4.5997 H         1 UNK         0.0814 
    108 H108       28.9853    3.1973   -4.5522 H         1 UNK         0.0814 
    109 H109       28.4464    1.7662   -3.6852 H         1 UNK         0.0814 
    110 H110       26.2958    1.9768   -6.9114 H         1 UNK         0.2983 
    111 H111       26.9724    3.9788   -8.8146 H         1 UNK         0.0947 
    112 H112       24.6674    3.5457   -9.6844 H         1 UNK         0.0806 
    113 H113       24.6756    3.6696   -7.9317 H         1 UNK         0.0806 
    114 H114       24.5580    2.0901   -8.7026 H         1 UNK         0.0806 
    115 H115       26.5391    0.4257   -9.2067 H         1 UNK         0.3000 
    116 H116       26.8705    0.4263  -12.0341 H         1 UNK         0.0850 
    117 H117       27.0342   -2.0588  -11.7376 H         1 UNK         0.0810 
    118 H118       25.6748   -1.3763  -10.8604 H         1 UNK         0.0810 
    119 H119       27.1359   -1.8438   -9.9942 H         1 UNK         0.0810 
    120 H120       29.1995   -0.4377   -9.4107 H         1 UNK         0.3040 
    121 H121       31.3122   -0.9333  -11.4322 H         1 UNK         0.0766 
    122 H122       32.4297   -2.0810   -9.5915 H         1 UNK         0.0812 
    123 H123       30.7506   -2.5958   -9.5918 H         1 UNK         0.0812 
    124 H124       31.3153   -1.4102   -8.4129 H         1 UNK         0.0812 
    125 H125       30.3330    1.7834   -9.7459 H         1 UNK         0.3205 
    126 H126       31.2019    3.7043   -9.0441 H         1 UNK         0.0754 
    127 H127       33.2445    4.6157  -10.0240 H         1 UNK         0.0769 
    128 H128       32.3501    3.7705  -11.2750 H         1 UNK         0.0769 
    129 H129       33.7761    3.0278  -10.5506 H         1 UNK         0.0769 
    130 H130       31.7015    1.0812   -7.6047 H         1 UNK         0.2981 
    131 H131       32.6715    0.1648   -5.8895 H         1 UNK         0.0541 
    132 H132       35.9118    0.1117   -7.8868 H         1 UNK         0.3459 
    133 H133       34.2919    0.4658   -8.4366 H         1 UNK         0.3459 
    134 H134       32.0745    2.5269   -4.8301 H         1 UNK         0.0612 
    135 H135       33.7929    2.7637   -4.7924 H         1 UNK         0.0612 
    136 H136       31.0611    0.7351   -2.0262 H         1 UNK         0.0624 
    137 H137       30.7211    1.0281   -3.7079 H         1 UNK         0.0624 
@<TRIPOS>BOND
     1    1    2 1    
     2    1   72 1    
     3    1   73 1    
     4    1   74 1    
     5    2    3 2    
     6    2    4 am   BACKBONE|DICT|INTERRES
     7    4    5 1    
     8    4   75 1    
     9    5    6 1    
    10    5   35 1    
    11    5   76 1    
    12    6    7 1    
    13    6   77 1    
    14    6   78 1    
    15    7    8 1    
    16    8    9 1    
    17    8   79 1    
    18    8   80 1    
    19    9   10 ar   
    20    9   14 ar   
    21   10   11 ar   
    22   10   81 1    
    23   11   12 ar   
    24   11   71 1    
    25   12   13 ar   
    26   12   82 1    
    27   13   14 ar   
    28   13   15 1    
    29   14   83 1    
    30   15   16 1    
    31   15   84 1    
    32   15   85 1    
    33   16   17 1    
    34   17   18 1    
    35   17   86 1    
    36   17   87 1    
    37   18   19 1    
    38   18   37 1    
    39   18   88 1    
    40   19   20 am   BACKBONE|DICT|INTERRES
    41   19   89 1    
    42   20   21 2    
    43   20   22 1    
    44   22   23 1    
    45   22   24 1    
    46   22   90 1    
    47   23   91 1    
    48   23   92 1    
    49   23   93 1    
    50   24   25 am   BACKBONE|DICT|INTERRES
    51   24   94 1    
    52   25   26 2    
    53   25   27 1    
    54   27   28 1    
    55   27   29 1    
    56   27   95 1    
    57   28   96 1    
    58   28   97 1    
    59   28   98 1    
    60   29   30 am   BACKBONE|DICT|INTERRES
    61   29   99 1    
    62   30   31 2    
    63   30   32 1    
    64   32   33 1    
    65   32   34 1    
    66   32  100 1    
    67   33  101 1    
    68   33  102 1    
    69   33  103 1    
    70   34   35 am   BACKBONE|DICT|INTERRES
    71   34  104 1    
    72   35   36 2    
    73   37   38 2    
    74   37   39 am   BACKBONE|DICT|INTERRES
    75   39   40 1    
    76   39  105 1    
    77   40   41 1    
    78   40   42 1    
    79   40  106 1    
    80   41  107 1    
    81   41  108 1    
    82   41  109 1    
    83   42   43 2    
    84   42   44 am   BACKBONE|DICT|INTERRES
    85   44   45 1    
    86   44  110 1    
    87   45   46 1    
    88   45   47 1    
    89   45  111 1    
    90   46  112 1    
    91   46  113 1    
    92   46  114 1    
    93   47   48 2    
    94   47   49 am   BACKBONE|DICT|INTERRES
    95   49   50 1    
    96   49  115 1    
    97   50   51 1    
    98   50   52 1    
    99   50  116 1    
   100   51  117 1    
   101   51  118 1    
   102   51  119 1    
   103   52   53 2    
   104   52   54 am   BACKBONE|DICT|INTERRES
   105   54   55 1    
   106   54  120 1    
   107   55   56 1    
   108   55   57 1    
   109   55  121 1    
   110   56  122 1    
   111   56  123 1    
   112   56  124 1    
   113   57   58 2    
   114   57   59 am   BACKBONE|DICT|INTERRES
   115   59   60 1    
   116   59  125 1    
   117   60   61 1    
   118   60   62 1    
   119   60  126 1    
   120   61  127 1    
   121   61  128 1    
   122   61  129 1    
   123   62   63 2    
   124   62   64 am   BACKBONE|DICT|INTERRES
   125   64   65 1    
   126   64  130 1    
   127   65   66 1    
   128   65   69 1    
   129   65  131 1    
   130   66   67 am   BACKBONE|DICT|INTERRES
   131   66   68 2    
   132   67  132 1    
   133   67  133 1    
   134   69   70 1    
   135   69  134 1    
   136   69  135 1    
   137   70   71 1    
   138   71  136 1    
   139   71  137 1    
@<TRIPOS>SUBSTRUCTURE
     1 UNK         1 GROUP             0       ****    0 ROOT    
