@<TRIPOS>MOLECULE
3R137
137   139    1
SMALL
USER_CHARGES


@<TRIPOS>ATOM
      1 CA         25.5268   -6.3587   -3.3729 C.3       0 UNK        -0.2020 
      2 C          25.7102   -5.6790   -2.0254 C.2       0 UNK         0.4855 
      3 O          24.8144   -5.7430   -1.1833 O.2       0 UNK        -0.5197 
      4 N          26.8698   -5.0422   -1.8096 N.am      1 UNK        -0.4892 
      5 CA         27.2403   -4.3879   -0.5446 C.3       1 UNK         0.0835 
      6 C6         28.7521   -4.0607   -0.4685 C.3       12 UNK        -0.0855 
      7 S7         29.7865   -5.5464   -0.7251 S.3       12 UNK        -0.2931 
      8 C8         31.3364   -4.8457   -1.3875 C.3       12 UNK         0.0378 
      9 C9         31.1293   -4.0137   -2.6479 C.ar      12 UNK        -0.0802 
     10 C10        31.6073   -2.6998   -2.7015 C.ar      12 UNK        -0.0944 
     11 C11        31.4067   -1.9125   -3.8391 C.ar      12 UNK        -0.0787 
     12 C12        30.7037   -2.4510   -4.9213 C.ar      12 UNK        -0.0862 
     13 C13        30.2279   -3.7644   -4.8877 C.ar      12 UNK        -0.0733 
     14 C14        30.4577   -4.5473   -3.7534 C.ar      12 UNK        -0.0832 
     15 C15        29.4822   -4.3363   -6.0858 C.3       12 UNK         0.0240 
     16 S16        27.7331   -4.7171   -5.7379 S.3       12 UNK        -0.2522 
     17 C17        27.0482   -3.1379   -5.1337 C.3       12 UNK        -0.0967 
     18 CA         26.6705   -2.1494   -6.2715 C.3       5 UNK         0.0660 
     19 N          25.4256   -1.4301   -5.9933 N.am      5 UNK        -0.4015 
     20 C          24.7413   -0.7053   -6.8910 C.2       4 UNK         0.4946 
     21 O          25.0415   -0.6246   -8.0822 O.2       4 UNK        -0.5353 
     22 CA         23.5441    0.1026   -6.3588 C.3       4 UNK         0.0277 
     23 CB         22.2768   -0.7662   -6.3250 C.3       4 UNK        -0.1981 
     24 N          23.7877    0.6711   -5.0292 N.am      4 UNK        -0.4209 
     25 C          24.7140    1.6050   -4.7680 C.2       3 UNK         0.4942 
     26 O          25.4090    2.1344   -5.6334 O.2       3 UNK        -0.5208 
     27 CA         24.9427    1.9810   -3.2932 C.3       3 UNK         0.0250 
     28 CB         24.0344    3.1550   -2.8950 C.3       3 UNK        -0.1990 
     29 N          24.7618    0.8775   -2.3419 N.am      3 UNK        -0.4232 
     30 C          25.4009   -0.3008   -2.3751 C.2       2 UNK         0.4993 
     31 O          26.1926   -0.6328   -3.2635 O.2       2 UNK        -0.5286 
     32 CA         25.0559   -1.2835   -1.2502 C.3       2 UNK         0.0209 
     33 CB         23.6010   -1.7767   -1.3703 C.3       2 UNK        -0.1931 
     34 N          25.9514   -2.4359   -1.3067 N.am      2 UNK        -0.4546 
     35 C          26.3903   -3.1328   -0.2514 C.2       1 UNK         0.5154 
     36 O          26.1312   -2.8371    0.9165 O.2       1 UNK        -0.5181 
     37 C          27.8056   -1.1473   -6.5369 C.2       5 UNK         0.5014 
     38 O          28.5239   -1.2898   -7.5261 O.2       5 UNK        -0.5248 
     39 N          27.9240   -0.1367   -5.6613 N.am      6 UNK        -0.4434 
     40 CA         28.9140    0.9382   -5.7561 C.3       6 UNK         0.0363 
     41 CB         28.7987    1.8693   -4.5398 C.3       6 UNK        -0.1936 
     42 C          28.8225    1.7331   -7.0657 C.2       6 UNK         0.5081 
     43 O          29.8569    2.0004   -7.6759 O.2       6 UNK        -0.5248 
     44 N          27.5939    2.0548   -7.4914 N.am      7 UNK        -0.4718 
     45 CA         27.2971    2.7012   -8.7694 C.3       7 UNK         0.0273 
     46 CB         25.8182    3.1184   -8.8021 C.3       7 UNK        -0.1935 
     47 C          27.6381    1.8184   -9.9811 C.2       7 UNK         0.5018 
     48 O          28.2015    2.3275  -10.9501 O.2       7 UNK        -0.5186 
     49 N          27.3064    0.5205   -9.9056 N.am      8 UNK        -0.4240 
     50 CA         27.5838   -0.4651  -10.9545 C.3       8 UNK         0.0235 
     51 CB         26.8152   -1.7651  -10.6667 C.3       8 UNK        -0.2000 
     52 C          29.0849   -0.7469  -11.1305 C.2       8 UNK         0.4941 
     53 O          29.5640   -0.7824  -12.2646 O.2       8 UNK        -0.5273 
     54 N          29.7988   -0.9340  -10.0125 N.am      9 UNK        -0.4262 
     55 CA         31.2434   -1.1800   -9.9845 C.3       9 UNK         0.0264 
     56 CB         31.6131   -1.8256   -8.6417 C.3       9 UNK        -0.1955 
     57 C          32.0889    0.0858  -10.2086 C.2       9 UNK         0.5031 
     58 O          33.2616   -0.0429  -10.5634 O.2       9 UNK        -0.5390 
     59 N          31.4946    1.2663   -9.9789 N.am      10 UNK        -0.4204 
     60 CA         32.1131    2.5959   -9.9752 C.3       10 UNK         0.0237 
     61 CB         32.6444    2.9775  -11.3740 C.3       10 UNK        -0.1985 
     62 C          33.1640    2.7263   -8.8560 C.2       10 UNK         0.4970 
     63 O          34.3008    3.1271   -9.1157 O.2       10 UNK        -0.4914 
     64 N          32.7596    2.3659   -7.6303 N.am      11 UNK        -0.4285 
     65 CA         33.5727    2.4820   -6.4094 C.3       11 UNK         0.1007 
     66 C          33.8959    3.9597   -6.0527 C.2       11 UNK         0.5703 
     67 N          35.0748    4.2220   -5.5046 N.am      11 UNK        -0.7361 
     68 O          33.0751    4.8591   -6.2275 O.2       11 UNK        -0.4986 
     69 C69        32.9087    1.7715   -5.2010 C.3       12 UNK        -0.0947 
     70 S70        32.7554   -0.0294   -5.4238 S.3       12 UNK        -0.2240 
     71 C71        31.9102   -0.4718   -3.8677 C.3       12 UNK         0.0194 
     72 H72        25.0002   -5.6993   -4.0620 H         1 UNK         0.0906 
     73 H73        26.4841   -6.6319   -3.8155 H         1 UNK         0.0906 
     74 H74        24.9418   -7.2713   -3.2608 H         1 UNK         0.0906 
     75 H75        27.5850   -5.0483   -2.5231 H         1 UNK         0.3140 
     76 H76        27.0198   -5.0974    0.2566 H         1 UNK         0.1085 
     77 H77        29.0050   -3.6396    0.5067 H         1 UNK         0.0836 
     78 H78        29.0054   -3.2966   -1.2050 H         1 UNK         0.0836 
     79 H79        31.8099   -4.2524   -0.6036 H         1 UNK         0.0731 
     80 H80        32.0243   -5.6616   -1.6130 H         1 UNK         0.0731 
     81 H81        32.1302   -2.2848   -1.8505 H         1 UNK         0.1312 
     82 H82        30.5307   -1.8448   -5.7970 H         1 UNK         0.1406 
     83 H83        30.0939   -5.5655   -3.7224 H         1 UNK         0.1631 
     84 H84        29.9799   -5.2524   -6.4062 H         1 UNK         0.0717 
     85 H85        29.5306   -3.6580   -6.9370 H         1 UNK         0.0717 
     86 H86        26.1527   -3.4081   -4.5727 H         1 UNK         0.0934 
     87 H87        27.7171   -2.6953   -4.3924 H         1 UNK         0.0934 
     88 H88        26.5066   -2.7142   -7.1920 H         1 UNK         0.0739 
     89 H89        25.1672   -1.3557   -5.0187 H         1 UNK         0.3093 
     90 H90        23.3732    0.9303   -7.0508 H         1 UNK         0.0818 
     91 H91        21.4037   -0.1832   -6.0313 H         1 UNK         0.0819 
     92 H92        22.0668   -1.1857   -7.3100 H         1 UNK         0.0819 
     93 H93        22.3737   -1.6009   -5.6295 H         1 UNK         0.0819 
     94 H94        23.2466    0.3017   -4.2612 H         1 UNK         0.3041 
     95 H95        25.9780    2.3115   -3.2002 H         1 UNK         0.0784 
     96 H96        24.1671    3.9987   -3.5741 H         1 UNK         0.0793 
     97 H97        22.9796    2.8783   -2.9215 H         1 UNK         0.0793 
     98 H98        24.2636    3.5129   -1.8911 H         1 UNK         0.0793 
     99 H99        24.1209    1.0522   -1.5809 H         1 UNK         0.3024 
    100 H100       25.1904   -0.7595   -0.3009 H         1 UNK         0.1171 
    101 H101       22.8894   -0.9538   -1.2953 H         1 UNK         0.0786 
    102 H102       23.3573   -2.4812   -0.5745 H         1 UNK         0.0786 
    103 H103       23.4238   -2.2800   -2.3217 H         1 UNK         0.0786 
    104 H104       26.2720   -2.6866   -2.2313 H         1 UNK         0.2977 
    105 H105       27.3002   -0.1210   -4.8596 H         1 UNK         0.3127 
    106 H106       29.8953    0.4674   -5.7397 H         1 UNK         0.0770 
    107 H107       27.8667    2.4325   -4.5523 H         1 UNK         0.0814 
    108 H108       29.6094    2.5981   -4.5298 H         1 UNK         0.0814 
    109 H109       28.8448    1.3148   -3.6025 H         1 UNK         0.0814 
    110 H110       26.8020    1.8612   -6.8820 H         1 UNK         0.2983 
    111 H111       27.9091    3.6035   -8.8359 H         1 UNK         0.0947 
    112 H112       25.5715    3.6149   -9.7415 H         1 UNK         0.0806 
    113 H113       25.5862    3.8148   -7.9960 H         1 UNK         0.0806 
    114 H114       25.1543    2.2588   -8.7003 H         1 UNK         0.0806 
    115 H115       26.8204    0.1854   -9.0811 H         1 UNK         0.3000 
    116 H116       27.2134   -0.0580  -11.8979 H         1 UNK         0.0850 
    117 H117       27.0008   -2.5094  -11.4422 H         1 UNK         0.0810 
    118 H118       25.7397   -1.5899  -10.6366 H         1 UNK         0.0810 
    119 H119       27.1070   -2.2064   -9.7131 H         1 UNK         0.0810 
    120 H120       29.3128   -0.9444   -9.1150 H         1 UNK         0.3040 
    121 H121       31.4909   -1.8852  -10.7808 H         1 UNK         0.0766 
    122 H122       32.6825   -2.0329   -8.5828 H         1 UNK         0.0812 
    123 H123       31.0905   -2.7705   -8.4983 H         1 UNK         0.0812 
    124 H124       31.3620   -1.1678   -7.8105 H         1 UNK         0.0812 
    125 H125       30.5468    1.2436   -9.6220 H         1 UNK         0.3205 
    126 H126       31.3159    3.2989   -9.7282 H         1 UNK         0.0754 
    127 H127       32.9903    4.0117  -11.3884 H         1 UNK         0.0769 
    128 H128       31.8651    2.8853  -12.1306 H         1 UNK         0.0769 
    129 H129       33.4838    2.3519  -11.6786 H         1 UNK         0.0769 
    130 H130       31.7881    2.0968   -7.5068 H         1 UNK         0.2981 
    131 H131       34.5205    1.9798   -6.6134 H         1 UNK         0.0541 
    132 H132       35.7505    3.4909   -5.3450 H         1 UNK         0.3459 
    133 H133       35.2967    5.1723   -5.2521 H         1 UNK         0.3459 
    134 H134       31.9190    2.1900   -5.0134 H         1 UNK         0.0612 
    135 H135       33.4910    1.9367   -4.2923 H         1 UNK         0.0612 
    136 H136       32.6027   -0.2927   -3.0438 H         1 UNK         0.0624 
    137 H137       31.0633    0.1938   -3.7059 H         1 UNK         0.0624 
@<TRIPOS>BOND
     1    1    2 1    
     2    1   72 1    
     3    1   73 1    
     4    1   74 1    
     5    2    3 2    
     6    2    4 am   BACKBONE|DICT|INTERRES
     7    4    5 1    
     8    4   75 1    
     9    5    6 1    
    10    5   35 1    
    11    5   76 1    
    12    6    7 1    
    13    6   77 1    
    14    6   78 1    
    15    7    8 1    
    16    8    9 1    
    17    8   79 1    
    18    8   80 1    
    19    9   10 ar   
    20    9   14 ar   
    21   10   11 ar   
    22   10   81 1    
    23   11   12 ar   
    24   11   71 1    
    25   12   13 ar   
    26   12   82 1    
    27   13   14 ar   
    28   13   15 1    
    29   14   83 1    
    30   15   16 1    
    31   15   84 1    
    32   15   85 1    
    33   16   17 1    
    34   17   18 1    
    35   17   86 1    
    36   17   87 1    
    37   18   19 1    
    38   18   37 1    
    39   18   88 1    
    40   19   20 am   BACKBONE|DICT|INTERRES
    41   19   89 1    
    42   20   21 2    
    43   20   22 1    
    44   22   23 1    
    45   22   24 1    
    46   22   90 1    
    47   23   91 1    
    48   23   92 1    
    49   23   93 1    
    50   24   25 am   BACKBONE|DICT|INTERRES
    51   24   94 1    
    52   25   26 2    
    53   25   27 1    
    54   27   28 1    
    55   27   29 1    
    56   27   95 1    
    57   28   96 1    
    58   28   97 1    
    59   28   98 1    
    60   29   30 am   BACKBONE|DICT|INTERRES
    61   29   99 1    
    62   30   31 2    
    63   30   32 1    
    64   32   33 1    
    65   32   34 1    
    66   32  100 1    
    67   33  101 1    
    68   33  102 1    
    69   33  103 1    
    70   34   35 am   BACKBONE|DICT|INTERRES
    71   34  104 1    
    72   35   36 2    
    73   37   38 2    
    74   37   39 am   BACKBONE|DICT|INTERRES
    75   39   40 1    
    76   39  105 1    
    77   40   41 1    
    78   40   42 1    
    79   40  106 1    
    80   41  107 1    
    81   41  108 1    
    82   41  109 1    
    83   42   43 2    
    84   42   44 am   BACKBONE|DICT|INTERRES
    85   44   45 1    
    86   44  110 1    
    87   45   46 1    
    88   45   47 1    
    89   45  111 1    
    90   46  112 1    
    91   46  113 1    
    92   46  114 1    
    93   47   48 2    
    94   47   49 am   BACKBONE|DICT|INTERRES
    95   49   50 1    
    96   49  115 1    
    97   50   51 1    
    98   50   52 1    
    99   50  116 1    
   100   51  117 1    
   101   51  118 1    
   102   51  119 1    
   103   52   53 2    
   104   52   54 am   BACKBONE|DICT|INTERRES
   105   54   55 1    
   106   54  120 1    
   107   55   56 1    
   108   55   57 1    
   109   55  121 1    
   110   56  122 1    
   111   56  123 1    
   112   56  124 1    
   113   57   58 2    
   114   57   59 am   BACKBONE|DICT|INTERRES
   115   59   60 1    
   116   59  125 1    
   117   60   61 1    
   118   60   62 1    
   119   60  126 1    
   120   61  127 1    
   121   61  128 1    
   122   61  129 1    
   123   62   63 2    
   124   62   64 am   BACKBONE|DICT|INTERRES
   125   64   65 1    
   126   64  130 1    
   127   65   66 1    
   128   65   69 1    
   129   65  131 1    
   130   66   67 am   BACKBONE|DICT|INTERRES
   131   66   68 2    
   132   67  132 1    
   133   67  133 1    
   134   69   70 1    
   135   69  134 1    
   136   69  135 1    
   137   70   71 1    
   138   71  136 1    
   139   71  137 1    
@<TRIPOS>SUBSTRUCTURE
     1 UNK         1 GROUP             0       ****    0 ROOT    
