@<TRIPOS>MOLECULE
3R137
137   139    1
SMALL
USER_CHARGES


@<TRIPOS>ATOM
      1 CA         26.0974   -6.5262   -1.6774 C.3       0 UNK        -0.2020 
      2 C          25.8905   -5.1318   -1.1074 C.2       0 UNK         0.4855 
      3 O          24.7759   -4.6096   -1.1566 O.2       0 UNK        -0.5197 
      4 N          26.9548   -4.5226   -0.5674 N.am      1 UNK        -0.4892 
      5 CA         26.9715   -3.1538   -0.0417 C.3       1 UNK         0.0835 
      6 C6         28.3006   -2.7666    0.6753 C.3       12 UNK        -0.0855 
      7 S7         29.8858   -3.5351    0.1484 S.3       12 UNK        -0.2931 
      8 C8         29.8937   -3.5663   -1.6772 C.3       12 UNK         0.0378 
      9 C9         30.4859   -2.3256   -2.3426 C.ar      12 UNK        -0.0802 
     10 C10        31.3240   -2.4855   -3.4491 C.ar      12 UNK        -0.0944 
     11 C11        31.8439   -1.3775   -4.1237 C.ar      12 UNK        -0.0787 
     12 C12        31.5369   -0.0908   -3.6721 C.ar      12 UNK        -0.0862 
     13 C13        30.7046    0.0878   -2.5628 C.ar      12 UNK        -0.0733 
     14 C14        30.1782   -1.0318   -1.9098 C.ar      12 UNK        -0.0832 
     15 C15        30.3794    1.4876   -2.0558 C.3       12 UNK         0.0240 
     16 S16        29.3134    2.4283   -3.1960 S.3       12 UNK        -0.2522 
     17 C17        27.8901    1.3087   -3.4154 C.3       12 UNK        -0.0967 
     18 CA         27.8672    0.7092   -4.8456 C.3       5 UNK         0.0660 
     19 N          27.4684   -0.7036   -4.8563 N.am      5 UNK        -0.4015 
     20 C          27.4678   -1.4923   -5.9441 C.2       4 UNK         0.4946 
     21 O          27.7757   -1.1091   -7.0732 O.2       4 UNK        -0.5353 
     22 CA         27.0083   -2.9432   -5.7469 C.3       4 UNK         0.0277 
     23 CB         28.1443   -3.7982   -5.1689 C.3       4 UNK        -0.1981 
     24 N          25.8377   -3.0007   -4.8700 N.am      4 UNK        -0.4209 
     25 C          24.5787   -2.8333   -5.3018 C.2       3 UNK         0.4942 
     26 O          24.2673   -2.7403   -6.4894 O.2       3 UNK        -0.5208 
     27 CA         23.4761   -2.7241   -4.2336 C.3       3 UNK         0.0250 
     28 CB         22.8800   -4.1074   -3.9293 C.3       3 UNK        -0.1990 
     29 N          23.9320   -2.0916   -2.9914 N.am      3 UNK        -0.4232 
     30 C          24.3260   -0.8109   -2.9037 C.2       2 UNK         0.4993 
     31 O          24.3339   -0.0353   -3.8577 O.2       2 UNK        -0.5286 
     32 CA         24.8456   -0.3073   -1.5459 C.3       2 UNK         0.0209 
     33 CB         23.7084    0.3564   -0.7536 C.3       2 UNK        -0.1931 
     34 N          25.4816   -1.3334   -0.7154 N.am      2 UNK        -0.4546 
     35 C          26.5121   -2.1077   -1.0832 C.2       1 UNK         0.5154 
     36 O          27.0496   -2.0421   -2.1930 O.2       1 UNK        -0.5181 
     37 C          27.0419    1.5899   -5.8092 C.2       5 UNK         0.5014 
     38 O          27.6012    2.5045   -6.4160 O.2       5 UNK        -0.5248 
     39 N          25.7467    1.2718   -5.9670 N.am      6 UNK        -0.4434 
     40 CA         24.7967    1.9121   -6.8834 C.3       6 UNK         0.0363 
     41 CB         23.4339    1.2094   -6.7742 C.3       6 UNK        -0.1936 
     42 C          25.2442    1.9683   -8.3558 C.2       6 UNK         0.5081 
     43 O          24.8340    2.8865   -9.0659 O.2       6 UNK        -0.5248 
     44 N          26.1151    1.0450   -8.7882 N.am      7 UNK        -0.4718 
     45 CA         26.7652    1.0559  -10.1030 C.3       7 UNK         0.0273 
     46 CB         27.1516   -0.3871  -10.4781 C.3       7 UNK        -0.1935 
     47 C          27.9734    2.0180  -10.1412 C.2       7 UNK         0.5018 
     48 O          29.0362    1.6445  -10.6386 O.2       7 UNK        -0.5186 
     49 N          27.8079    3.2259   -9.5779 N.am      8 UNK        -0.4240 
     50 CA         28.7938    4.3106   -9.4435 C.3       8 UNK         0.0235 
     51 CB         29.0154    4.9858  -10.8133 C.3       8 UNK        -0.2000 
     52 C          30.1225    3.8802   -8.7824 C.2       8 UNK         0.4941 
     53 O          31.1733    4.4348   -9.1095 O.2       8 UNK        -0.5273 
     54 N          30.0554    2.8687   -7.9023 N.am      9 UNK        -0.4262 
     55 CA         31.1685    2.1337   -7.2870 C.3       9 UNK         0.0264 
     56 CB         31.9014    3.0260   -6.2636 C.3       9 UNK        -0.1955 
     57 C          32.1426    1.4743   -8.2919 C.2       9 UNK         0.5031 
     58 O          33.2593    1.1239   -7.9029 O.2       9 UNK        -0.5390 
     59 N          31.7294    1.2875   -9.5558 N.am      10 UNK        -0.4204 
     60 CA         32.5479    0.7303  -10.6364 C.3       10 UNK         0.0237 
     61 CB         32.0552    1.2871  -11.9854 C.3       10 UNK        -0.1985 
     62 C          32.5568   -0.8076  -10.5923 C.2       10 UNK         0.4970 
     63 O          32.1271   -1.4624  -11.5440 O.2       10 UNK        -0.4914 
     64 N          33.0341   -1.3522   -9.4694 N.am      11 UNK        -0.4285 
     65 CA         33.1090   -2.7931   -9.1887 C.3       11 UNK         0.1007 
     66 C          34.2141   -3.5558   -9.9772 C.2       11 UNK         0.5703 
     67 N          35.1498   -2.8833  -10.6376 N.am      11 UNK        -0.7361 
     68 O          34.2171   -4.7846   -9.9950 O.2       11 UNK        -0.4986 
     69 C69        33.2262   -3.0663   -7.6681 C.3       12 UNK        -0.0947 
     70 S70        31.8455   -2.3555   -6.7084 S.3       12 UNK        -0.2240 
     71 C71        32.7493   -1.5895   -5.3265 C.3       12 UNK         0.0194 
     72 H72        27.1256   -6.8675   -1.5587 H         1 UNK         0.0906 
     73 H73        25.4429   -7.2375   -1.1745 H         1 UNK         0.0906 
     74 H74        25.8575   -6.5344   -2.7403 H         1 UNK         0.0906 
     75 H75        27.8457   -4.9982   -0.5402 H         1 UNK         0.3140 
     76 H76        26.2047   -3.1542    0.7368 H         1 UNK         0.1085 
     77 H77        28.1971   -3.0483    1.7245 H         1 UNK         0.0836 
     78 H78        28.4286   -1.6838    0.7136 H         1 UNK         0.0836 
     79 H79        28.8994   -3.7485   -2.0697 H         1 UNK         0.0731 
     80 H80        30.4788   -4.4405   -1.9669 H         1 UNK         0.0731 
     81 H81        31.5622   -3.4786   -3.8053 H         1 UNK         0.1312 
     82 H82        31.9409    0.7727   -4.1809 H         1 UNK         0.1406 
     83 H83        29.5215   -0.8921   -1.0660 H         1 UNK         0.1631 
     84 H84        31.3087    2.0396   -1.9086 H         1 UNK         0.0717 
     85 H85        29.8950    1.4431   -1.0791 H         1 UNK         0.0717 
     86 H86        27.9458    0.5226   -2.6627 H         1 UNK         0.0934 
     87 H87        26.9732    1.8558   -3.1865 H         1 UNK         0.0934 
     88 H88        28.8876    0.7021   -5.2346 H         1 UNK         0.0739 
     89 H89        27.2412   -1.1188   -3.9584 H         1 UNK         0.3093 
     90 H90        26.7480   -3.3526   -6.7256 H         1 UNK         0.0818 
     91 H91        27.8266   -4.8264   -4.9964 H         1 UNK         0.0819 
     92 H92        28.9940   -3.8270   -5.8527 H         1 UNK         0.0819 
     93 H93        28.5051   -3.3908   -4.2277 H         1 UNK         0.0819 
     94 H94        26.0123   -3.0255   -3.8726 H         1 UNK         0.3041 
     95 H95        22.6826   -2.0977   -4.6473 H         1 UNK         0.0784 
     96 H96        22.4526   -4.5518   -4.8293 H         1 UNK         0.0793 
     97 H97        23.6337   -4.8000   -3.5540 H         1 UNK         0.0793 
     98 H98        22.0823   -4.0445   -3.1891 H         1 UNK         0.0793 
     99 H99        23.9986   -2.6848   -2.1728 H         1 UNK         0.3024 
    100 H100       25.5992    0.4530   -1.7540 H         1 UNK         0.1171 
    101 H101       24.0779    0.8188    0.1620 H         1 UNK         0.0786 
    102 H102       23.2312    1.1430   -1.3403 H         1 UNK         0.0786 
    103 H103       22.9337   -0.3613   -0.4803 H         1 UNK         0.0786 
    104 H104       25.0820   -1.4672    0.2027 H         1 UNK         0.2977 
    105 H105       25.3519    0.5636   -5.3519 H         1 UNK         0.3127 
    106 H106       24.6772    2.9441   -6.5480 H         1 UNK         0.0770 
    107 H107       23.5108    0.1455   -7.0031 H         1 UNK         0.0814 
    108 H108       22.7101    1.6426   -7.4661 H         1 UNK         0.0814 
    109 H109       23.0159    1.3076   -5.7724 H         1 UNK         0.0814 
    110 H110       26.4556    0.3542   -8.1282 H         1 UNK         0.2983 
    111 H111       26.0525    1.4127  -10.8498 H         1 UNK         0.0947 
    112 H112       27.9014   -0.7923   -9.7972 H         1 UNK         0.0806 
    113 H113       27.5681   -0.4326  -11.4853 H         1 UNK         0.0806 
    114 H114       26.2862   -1.0493  -10.4563 H         1 UNK         0.0806 
    115 H115       26.8921    3.4163   -9.1872 H         1 UNK         0.3000 
    116 H116       28.3492    5.0477   -8.7732 H         1 UNK         0.0850 
    117 H117       29.6424    5.8733  -10.7192 H         1 UNK         0.0810 
    118 H118       28.0720    5.3048  -11.2564 H         1 UNK         0.0810 
    119 H119       29.5063    4.3125  -11.5172 H         1 UNK         0.0810 
    120 H120       29.1259    2.5545   -7.6332 H         1 UNK         0.3040 
    121 H121       30.7145    1.3079   -6.7378 H         1 UNK         0.0766 
    122 H122       32.6632    2.4653   -5.7215 H         1 UNK         0.0812 
    123 H123       31.2096    3.4281   -5.5236 H         1 UNK         0.0812 
    124 H124       32.4023    3.8654   -6.7465 H         1 UNK         0.0812 
    125 H125       30.7752    1.5373   -9.8076 H         1 UNK         0.3205 
    126 H126       33.5793    1.0644  -10.5050 H         1 UNK         0.0754 
    127 H127       32.7009    0.9598  -12.8013 H         1 UNK         0.0769 
    128 H128       32.0550    2.3774  -11.9881 H         1 UNK         0.0769 
    129 H129       31.0436    0.9525  -12.2177 H         1 UNK         0.0769 
    130 H130       33.3362   -0.7267   -8.7299 H         1 UNK         0.2981 
    131 H131       32.1644   -3.2290   -9.5200 H         1 UNK         0.0541 
    132 H132       35.8559   -3.3907  -11.1471 H         1 UNK         0.3459 
    133 H133       35.1576   -1.8764  -10.6289 H         1 UNK         0.3459 
    134 H134       33.2385   -4.1395   -7.4695 H         1 UNK         0.0612 
    135 H135       34.1742   -2.6756   -7.2941 H         1 UNK         0.0612 
    136 H136       33.5774   -2.2331   -5.0261 H         1 UNK         0.0624 
    137 H137       33.1876   -0.6487   -5.6630 H         1 UNK         0.0624 
@<TRIPOS>BOND
     1    1    2 1    
     2    1   72 1    
     3    1   73 1    
     4    1   74 1    
     5    2    3 2    
     6    2    4 am   BACKBONE|DICT|INTERRES
     7    4    5 1    
     8    4   75 1    
     9    5    6 1    
    10    5   35 1    
    11    5   76 1    
    12    6    7 1    
    13    6   77 1    
    14    6   78 1    
    15    7    8 1    
    16    8    9 1    
    17    8   79 1    
    18    8   80 1    
    19    9   10 ar   
    20    9   14 ar   
    21   10   11 ar   
    22   10   81 1    
    23   11   12 ar   
    24   11   71 1    
    25   12   13 ar   
    26   12   82 1    
    27   13   14 ar   
    28   13   15 1    
    29   14   83 1    
    30   15   16 1    
    31   15   84 1    
    32   15   85 1    
    33   16   17 1    
    34   17   18 1    
    35   17   86 1    
    36   17   87 1    
    37   18   19 1    
    38   18   37 1    
    39   18   88 1    
    40   19   20 am   BACKBONE|DICT|INTERRES
    41   19   89 1    
    42   20   21 2    
    43   20   22 1    
    44   22   23 1    
    45   22   24 1    
    46   22   90 1    
    47   23   91 1    
    48   23   92 1    
    49   23   93 1    
    50   24   25 am   BACKBONE|DICT|INTERRES
    51   24   94 1    
    52   25   26 2    
    53   25   27 1    
    54   27   28 1    
    55   27   29 1    
    56   27   95 1    
    57   28   96 1    
    58   28   97 1    
    59   28   98 1    
    60   29   30 am   BACKBONE|DICT|INTERRES
    61   29   99 1    
    62   30   31 2    
    63   30   32 1    
    64   32   33 1    
    65   32   34 1    
    66   32  100 1    
    67   33  101 1    
    68   33  102 1    
    69   33  103 1    
    70   34   35 am   BACKBONE|DICT|INTERRES
    71   34  104 1    
    72   35   36 2    
    73   37   38 2    
    74   37   39 am   BACKBONE|DICT|INTERRES
    75   39   40 1    
    76   39  105 1    
    77   40   41 1    
    78   40   42 1    
    79   40  106 1    
    80   41  107 1    
    81   41  108 1    
    82   41  109 1    
    83   42   43 2    
    84   42   44 am   BACKBONE|DICT|INTERRES
    85   44   45 1    
    86   44  110 1    
    87   45   46 1    
    88   45   47 1    
    89   45  111 1    
    90   46  112 1    
    91   46  113 1    
    92   46  114 1    
    93   47   48 2    
    94   47   49 am   BACKBONE|DICT|INTERRES
    95   49   50 1    
    96   49  115 1    
    97   50   51 1    
    98   50   52 1    
    99   50  116 1    
   100   51  117 1    
   101   51  118 1    
   102   51  119 1    
   103   52   53 2    
   104   52   54 am   BACKBONE|DICT|INTERRES
   105   54   55 1    
   106   54  120 1    
   107   55   56 1    
   108   55   57 1    
   109   55  121 1    
   110   56  122 1    
   111   56  123 1    
   112   56  124 1    
   113   57   58 2    
   114   57   59 am   BACKBONE|DICT|INTERRES
   115   59   60 1    
   116   59  125 1    
   117   60   61 1    
   118   60   62 1    
   119   60  126 1    
   120   61  127 1    
   121   61  128 1    
   122   61  129 1    
   123   62   63 2    
   124   62   64 am   BACKBONE|DICT|INTERRES
   125   64   65 1    
   126   64  130 1    
   127   65   66 1    
   128   65   69 1    
   129   65  131 1    
   130   66   67 am   BACKBONE|DICT|INTERRES
   131   66   68 2    
   132   67  132 1    
   133   67  133 1    
   134   69   70 1    
   135   69  134 1    
   136   69  135 1    
   137   70   71 1    
   138   71  136 1    
   139   71  137 1    
@<TRIPOS>SUBSTRUCTURE
     1 UNK         1 GROUP             0       ****    0 ROOT    
