@<TRIPOS>MOLECULE
3R137
137   139    1
SMALL
USER_CHARGES


@<TRIPOS>ATOM
      1 CA         28.3659   -3.2583    3.6019 C.3       0 UNK        -0.2020 
      2 C          27.8208   -3.5871    2.2198 C.2       0 UNK         0.4855 
      3 O          26.7748   -4.2291    2.1168 O.2       0 UNK        -0.5197 
      4 N          28.5262   -3.1508    1.1665 N.am      1 UNK        -0.4892 
      5 CA         28.1788   -3.3234   -0.2527 C.3       1 UNK         0.0835 
      6 C6         28.1567   -4.8134   -0.7137 C.3       12 UNK        -0.0855 
      7 S7         29.6633   -5.7910   -0.3624 S.3       12 UNK        -0.2931 
      8 C8         31.0468   -4.6712   -0.7869 C.3       12 UNK         0.0378 
      9 C9         31.0459   -4.1174   -2.2138 C.ar      12 UNK        -0.0802 
     10 C10        31.7305   -2.9240   -2.4663 C.ar      12 UNK        -0.0944 
     11 C11        31.7907   -2.3960   -3.7579 C.ar      12 UNK        -0.0787 
     12 C12        31.1502   -3.0626   -4.8041 C.ar      12 UNK        -0.0862 
     13 C13        30.4309   -4.2392   -4.5695 C.ar      12 UNK        -0.0733 
     14 C14        30.4097   -4.7731   -3.2772 C.ar      12 UNK        -0.0832 
     15 C15        29.6871   -4.9676   -5.6891 C.3       12 UNK         0.0240 
     16 S16        29.0521   -3.8910   -7.0218 S.3       12 UNK        -0.2522 
     17 C17        27.8942   -2.8061   -6.1231 C.3       12 UNK        -0.0967 
     18 CA         27.2468   -1.7539   -7.0618 C.3       5 UNK         0.0660 
     19 N          25.8686   -1.4515   -6.6644 N.am      5 UNK        -0.4015 
     20 C          24.9528   -0.9085   -7.4811 C.2       4 UNK         0.4946 
     21 O          25.1739   -0.6246   -8.6574 O.2       4 UNK        -0.5353 
     22 CA         23.5646   -0.5997   -6.8899 C.3       4 UNK         0.0277 
     23 CB         22.6349   -1.8137   -7.0443 C.3       4 UNK        -0.1981 
     24 N          23.6056   -0.1940   -5.4838 N.am      4 UNK        -0.4209 
     25 C          24.2490    0.8854   -5.0167 C.2       3 UNK         0.4942 
     26 O          24.8130    1.7060   -5.7371 O.2       3 UNK        -0.5208 
     27 CA         24.3329    1.0512   -3.4899 C.3       3 UNK         0.0250 
     28 CB         23.2352    2.0054   -2.9941 C.3       3 UNK        -0.1990 
     29 N          24.2615   -0.2093   -2.7406 N.am      3 UNK        -0.4232 
     30 C          25.1089   -1.2397   -2.8742 C.2       2 UNK         0.4993 
     31 O          26.0278   -1.2781   -3.6986 O.2       2 UNK        -0.5286 
     32 CA         24.8285   -2.4653   -1.9929 C.3       2 UNK         0.0209 
     33 CB         24.0171   -3.5078   -2.7803 C.3       2 UNK        -0.1931 
     34 N          26.0660   -3.0832   -1.5182 N.am      2 UNK        -0.4546 
     35 C          26.8899   -2.5422   -0.6092 C.2       1 UNK         0.5154 
     36 O          26.6681   -1.4581   -0.0615 O.2       1 UNK        -0.5181 
     37 C          28.0864   -0.4625   -7.1822 C.2       5 UNK         0.5014 
     38 O          28.8870   -0.3305   -8.1116 O.2       5 UNK        -0.5248 
     39 N          27.8426    0.4973   -6.2765 N.am      6 UNK        -0.4434 
     40 CA         28.4152    1.8433   -6.3303 C.3       6 UNK         0.0363 
     41 CB         28.1718    2.5735   -5.0007 C.3       6 UNK        -0.1936 
     42 C          27.8752    2.6537   -7.5209 C.2       6 UNK         0.5081 
     43 O          28.6614    3.3005   -8.2106 O.2       6 UNK        -0.5248 
     44 N          26.5623    2.5651   -7.7823 N.am      7 UNK        -0.4718 
     45 CA         25.8918    3.1738   -8.9385 C.3       7 UNK         0.0273 
     46 CB         24.3703    3.0150   -8.7984 C.3       7 UNK        -0.1935 
     47 C          26.3725    2.6092  -10.2876 C.2       7 UNK         0.5018 
     48 O          26.4584    3.3598  -11.2596 O.2       7 UNK        -0.5186 
     49 N          26.7275    1.3163  -10.3113 N.am      8 UNK        -0.4240 
     50 CA         27.3888    0.6401  -11.4323 C.3       8 UNK         0.0235 
     51 CB         27.2275   -0.8811  -11.2671 C.3       8 UNK        -0.2000 
     52 C          28.8769    1.0165  -11.5985 C.2       8 UNK         0.4941 
     53 O          29.5021    0.5454  -12.5494 O.2       8 UNK        -0.5273 
     54 N          29.4190    1.8407  -10.6877 N.am      9 UNK        -0.4262 
     55 CA         30.7876    2.3643  -10.6413 C.3       9 UNK         0.0264 
     56 CB         31.1172    3.1965  -11.8994 C.3       9 UNK        -0.1955 
     57 C          31.8585    1.3043  -10.3300 C.2       9 UNK         0.5031 
     58 O          33.0390    1.5549  -10.5819 O.2       9 UNK        -0.5390 
     59 N          31.4644    0.1656   -9.7377 N.am      10 UNK        -0.4204 
     60 CA         32.3880   -0.8965   -9.3199 C.3       10 UNK         0.0237 
     61 CB         31.5912   -2.1529   -8.9460 C.3       10 UNK        -0.1985 
     62 C          33.2999   -0.4710   -8.1555 C.2       10 UNK         0.4970 
     63 O          34.4149   -0.9810   -8.0429 O.2       10 UNK        -0.4914 
     64 N          32.8160    0.4677   -7.3332 N.am      11 UNK        -0.4285 
     65 CA         33.5626    1.1081   -6.2420 C.3       11 UNK         0.1007 
     66 C          34.4685    2.2886   -6.7028 C.2       11 UNK         0.5703 
     67 N          34.5224    2.6393   -7.9838 N.am      11 UNK        -0.7361 
     68 O          35.1498    2.8948   -5.8793 O.2       11 UNK        -0.4986 
     69 C69        32.6294    1.5223   -5.0677 C.3       12 UNK        -0.0947 
     70 S70        31.4492    0.2333   -4.5333 S.3       12 UNK        -0.2240 
     71 C71        32.5640   -1.1194   -4.0420 C.3       12 UNK         0.0194 
     72 H72        28.5517   -4.1761    4.1593 H         1 UNK         0.0906 
     73 H73        27.6429   -2.6622    4.1580 H         1 UNK         0.0906 
     74 H74        29.2997   -2.6985    3.5515 H         1 UNK         0.0906 
     75 H75        29.3517   -2.5939    1.3362 H         1 UNK         0.3140 
     76 H76        28.9585   -2.8118   -0.8174 H         1 UNK         0.1085 
     77 H77        27.9928   -4.8749   -1.7901 H         1 UNK         0.0836 
     78 H78        27.3173   -5.3393   -0.2553 H         1 UNK         0.0836 
     79 H79        31.0630   -3.8522   -0.0669 H         1 UNK         0.0731 
     80 H80        31.9790   -5.2176   -0.6384 H         1 UNK         0.0731 
     81 H81        32.2328   -2.4117   -1.6567 H         1 UNK         0.1312 
     82 H82        31.2053   -2.6469   -5.7999 H         1 UNK         0.1406 
     83 H83        29.8899   -5.7050   -3.1043 H         1 UNK         0.1631 
     84 H84        28.8461   -5.5282   -5.2778 H         1 UNK         0.0717 
     85 H85        30.3622   -5.7015   -6.1306 H         1 UNK         0.0717 
     86 H86        27.1288   -3.4543   -5.6929 H         1 UNK         0.0934 
     87 H87        28.3919   -2.3358   -5.2723 H         1 UNK         0.0934 
     88 H88        27.1887   -2.1846   -8.0642 H         1 UNK         0.0739 
     89 H89        25.6456   -1.5865   -5.6840 H         1 UNK         0.3093 
     90 H90        23.1403    0.2291   -7.4595 H         1 UNK         0.0818 
     91 H91        22.5703   -2.1237   -8.0885 H         1 UNK         0.0819 
     92 H92        22.9888   -2.6717   -6.4712 H         1 UNK         0.0819 
     93 H93        21.6217   -1.5830   -6.7147 H         1 UNK         0.0819 
     94 H94        23.1581   -0.8062   -4.8180 H         1 UNK         0.3041 
     95 H95        25.3027    1.5029   -3.2707 H         1 UNK         0.0784 
     96 H96        23.2821    2.9604   -3.5199 H         1 UNK         0.0793 
     97 H97        22.2379    1.5939   -3.1549 H         1 UNK         0.0793 
     98 H98        23.3444    2.2193   -1.9307 H         1 UNK         0.0793 
     99 H99        23.5242   -0.2752   -2.0530 H         1 UNK         0.3024 
    100 H100       24.2498   -2.1535   -1.1200 H         1 UNK         0.1171 
    101 H101       23.0675   -3.0920   -3.1198 H         1 UNK         0.0786 
    102 H102       23.7843   -4.3770   -2.1646 H         1 UNK         0.0786 
    103 H103       24.5545   -3.8565   -3.6634 H         1 UNK         0.0786 
    104 H104       26.3239   -3.9572   -1.9506 H         1 UNK         0.2977 
    105 H105       27.1639    0.3167   -5.5501 H         1 UNK         0.3127 
    106 H106       29.4942    1.7413   -6.4639 H         1 UNK         0.0770 
    107 H107       28.6028    2.0240   -4.1635 H         1 UNK         0.0814 
    108 H108       28.6351    3.5609   -5.0116 H         1 UNK         0.0814 
    109 H109       27.1099    2.7154   -4.8000 H         1 UNK         0.0814 
    110 H110       25.9663    2.0765   -7.1160 H         1 UNK         0.2983 
    111 H111       26.1261    4.2404   -8.9287 H         1 UNK         0.0947 
    112 H112       24.0728    1.9669   -8.8199 H         1 UNK         0.0806 
    113 H113       23.8491    3.5182   -9.6138 H         1 UNK         0.0806 
    114 H114       24.0088    3.4480   -7.8654 H         1 UNK         0.0806 
    115 H115       26.5398    0.7510   -9.4901 H         1 UNK         0.3000 
    116 H116       26.8817    0.9359  -12.3530 H         1 UNK         0.0850 
    117 H117       27.6543   -1.4166  -12.1161 H         1 UNK         0.0810 
    118 H118       26.1767   -1.1642  -11.2036 H         1 UNK         0.0810 
    119 H119       27.7271   -1.2447  -10.3692 H         1 UNK         0.0810 
    120 H120       28.8282    2.1624   -9.9283 H         1 UNK         0.3040 
    121 H121       30.8088    3.0499   -9.7935 H         1 UNK         0.0766 
    122 H122       31.2088    2.5715  -12.7880 H         1 UNK         0.0812 
    123 H123       32.0622    3.7279  -11.7807 H         1 UNK         0.0812 
    124 H124       30.3491    3.9455  -12.0920 H         1 UNK         0.0812 
    125 H125       30.4845    0.0413   -9.5019 H         1 UNK         0.3205 
    126 H126       33.0288   -1.1393  -10.1702 H         1 UNK         0.0754 
    127 H127       32.2558   -2.9799   -8.6926 H         1 UNK         0.0769 
    128 H128       30.9547   -2.4842   -9.7668 H         1 UNK         0.0769 
    129 H129       30.9551   -1.9703   -8.0813 H         1 UNK         0.0769 
    130 H130       31.8834    0.8150   -7.4953 H         1 UNK         0.2981 
    131 H131       34.2685    0.3765   -5.8487 H         1 UNK         0.0541 
    132 H132       35.1212    3.4031   -8.2544 H         1 UNK         0.3459 
    133 H133       33.9990    2.1399   -8.6904 H         1 UNK         0.3459 
    134 H134       32.0420    2.3987   -5.3477 H         1 UNK         0.0612 
    135 H135       33.2205    1.8184   -4.1993 H         1 UNK         0.0612 
    136 H136       33.2743   -1.3318   -4.8402 H         1 UNK         0.0624 
    137 H137       33.1473   -0.8081   -3.1742 H         1 UNK         0.0624 
@<TRIPOS>BOND
     1    1    2 1    
     2    1   72 1    
     3    1   73 1    
     4    1   74 1    
     5    2    3 2    
     6    2    4 am   BACKBONE|DICT|INTERRES
     7    4    5 1    
     8    4   75 1    
     9    5    6 1    
    10    5   35 1    
    11    5   76 1    
    12    6    7 1    
    13    6   77 1    
    14    6   78 1    
    15    7    8 1    
    16    8    9 1    
    17    8   79 1    
    18    8   80 1    
    19    9   10 ar   
    20    9   14 ar   
    21   10   11 ar   
    22   10   81 1    
    23   11   12 ar   
    24   11   71 1    
    25   12   13 ar   
    26   12   82 1    
    27   13   14 ar   
    28   13   15 1    
    29   14   83 1    
    30   15   16 1    
    31   15   84 1    
    32   15   85 1    
    33   16   17 1    
    34   17   18 1    
    35   17   86 1    
    36   17   87 1    
    37   18   19 1    
    38   18   37 1    
    39   18   88 1    
    40   19   20 am   BACKBONE|DICT|INTERRES
    41   19   89 1    
    42   20   21 2    
    43   20   22 1    
    44   22   23 1    
    45   22   24 1    
    46   22   90 1    
    47   23   91 1    
    48   23   92 1    
    49   23   93 1    
    50   24   25 am   BACKBONE|DICT|INTERRES
    51   24   94 1    
    52   25   26 2    
    53   25   27 1    
    54   27   28 1    
    55   27   29 1    
    56   27   95 1    
    57   28   96 1    
    58   28   97 1    
    59   28   98 1    
    60   29   30 am   BACKBONE|DICT|INTERRES
    61   29   99 1    
    62   30   31 2    
    63   30   32 1    
    64   32   33 1    
    65   32   34 1    
    66   32  100 1    
    67   33  101 1    
    68   33  102 1    
    69   33  103 1    
    70   34   35 am   BACKBONE|DICT|INTERRES
    71   34  104 1    
    72   35   36 2    
    73   37   38 2    
    74   37   39 am   BACKBONE|DICT|INTERRES
    75   39   40 1    
    76   39  105 1    
    77   40   41 1    
    78   40   42 1    
    79   40  106 1    
    80   41  107 1    
    81   41  108 1    
    82   41  109 1    
    83   42   43 2    
    84   42   44 am   BACKBONE|DICT|INTERRES
    85   44   45 1    
    86   44  110 1    
    87   45   46 1    
    88   45   47 1    
    89   45  111 1    
    90   46  112 1    
    91   46  113 1    
    92   46  114 1    
    93   47   48 2    
    94   47   49 am   BACKBONE|DICT|INTERRES
    95   49   50 1    
    96   49  115 1    
    97   50   51 1    
    98   50   52 1    
    99   50  116 1    
   100   51  117 1    
   101   51  118 1    
   102   51  119 1    
   103   52   53 2    
   104   52   54 am   BACKBONE|DICT|INTERRES
   105   54   55 1    
   106   54  120 1    
   107   55   56 1    
   108   55   57 1    
   109   55  121 1    
   110   56  122 1    
   111   56  123 1    
   112   56  124 1    
   113   57   58 2    
   114   57   59 am   BACKBONE|DICT|INTERRES
   115   59   60 1    
   116   59  125 1    
   117   60   61 1    
   118   60   62 1    
   119   60  126 1    
   120   61  127 1    
   121   61  128 1    
   122   61  129 1    
   123   62   63 2    
   124   62   64 am   BACKBONE|DICT|INTERRES
   125   64   65 1    
   126   64  130 1    
   127   65   66 1    
   128   65   69 1    
   129   65  131 1    
   130   66   67 am   BACKBONE|DICT|INTERRES
   131   66   68 2    
   132   67  132 1    
   133   67  133 1    
   134   69   70 1    
   135   69  134 1    
   136   69  135 1    
   137   70   71 1    
   138   71  136 1    
   139   71  137 1    
@<TRIPOS>SUBSTRUCTURE
     1 UNK         1 GROUP             0       ****    0 ROOT    
