@<TRIPOS>MOLECULE
3R137
137   139    1
SMALL
USER_CHARGES


@<TRIPOS>ATOM
      1 CA         29.7760   -4.4357   -4.9995 C.3       0 UNK        -0.2020 
      2 C          28.7619   -4.6255   -3.8840 C.2       0 UNK         0.4855 
      3 O          27.9690   -5.5662   -3.9304 O.2       0 UNK        -0.5197 
      4 N          28.7758   -3.7332   -2.8875 N.am      1 UNK        -0.4892 
      5 CA         27.8069   -3.7175   -1.7886 C.3       1 UNK         0.0835 
      6 C6         28.3521   -2.9907   -0.5339 C.3       12 UNK        -0.0855 
      7 S7         29.8521   -3.8015    0.1249 S.3       12 UNK        -0.2931 
      8 C8         31.0632   -2.4384    0.1786 C.3       12 UNK         0.0378 
      9 C9         31.3150   -1.8225   -1.1911 C.ar      12 UNK        -0.0802 
     10 C10        31.9552   -2.5598   -2.1921 C.ar      12 UNK        -0.0944 
     11 C11        32.1679   -2.0004   -3.4551 C.ar      12 UNK        -0.0787 
     12 C12        31.7343   -0.6961   -3.7126 C.ar      12 UNK        -0.0862 
     13 C13        31.1121    0.0605   -2.7152 C.ar      12 UNK        -0.0733 
     14 C14        30.9139   -0.5085   -1.4526 C.ar      12 UNK        -0.0832 
     15 C15        30.6939    1.4991   -3.0105 C.3       12 UNK         0.0240 
     16 S16        29.0522    1.9628   -2.3563 S.3       12 UNK        -0.2522 
     17 C17        27.9536    0.7152   -3.1084 C.3       12 UNK        -0.0967 
     18 CA         27.6971    0.9076   -4.6224 C.3       5 UNK         0.0660 
     19 N          27.0595   -0.2760   -5.2045 N.am      5 UNK        -0.4015 
     20 C          26.9758   -0.5089   -6.5217 C.2       4 UNK         0.4946 
     21 O          27.4880    0.2177   -7.3753 O.2       4 UNK        -0.5353 
     22 CA         26.1648   -1.7366   -6.9686 C.3       4 UNK         0.0277 
     23 CB         27.0202   -3.0081   -6.9020 C.3       4 UNK        -0.1981 
     24 N          24.9323   -1.9430   -6.2022 N.am      4 UNK        -0.4209 
     25 C          23.8994   -1.0934   -6.1510 C.2       3 UNK         0.4942 
     26 O          23.8916   -0.0047   -6.7205 O.2       3 UNK        -0.5208 
     27 CA         22.6782   -1.4962   -5.3049 C.3       3 UNK         0.0250 
     28 CB         21.7951   -2.5208   -6.0440 C.3       3 UNK        -0.1990 
     29 N          23.0132   -1.9330   -3.9419 N.am      3 UNK        -0.4232 
     30 C          23.6871   -3.0258   -3.5579 C.2       2 UNK         0.4993 
     31 O          24.0762   -3.9091   -4.3263 O.2       2 UNK        -0.5286 
     32 CA         23.9990   -3.1311   -2.0547 C.3       2 UNK         0.0209 
     33 CB         22.9849   -4.0552   -1.3610 C.3       2 UNK        -0.1931 
     34 N          25.3575   -3.6132   -1.7805 N.am      2 UNK        -0.4546 
     35 C          26.4881   -3.0751   -2.2613 C.2       1 UNK         0.5154 
     36 O          26.5197   -2.0942   -3.0124 O.2       1 UNK        -0.5181 
     37 C          26.9055    2.1952   -4.9407 C.2       5 UNK         0.5014 
     38 O          27.5158    3.2068   -5.2877 O.2       5 UNK        -0.5248 
     39 N          25.5662    2.1257   -4.8754 N.am      6 UNK        -0.4434 
     40 CA         24.6595    3.2284   -5.2175 C.3       6 UNK         0.0363 
     41 CB         23.2324    2.8909   -4.7561 C.3       6 UNK        -0.1936 
     42 C          24.6836    3.5764   -6.7169 C.2       6 UNK         0.5081 
     43 O          24.6400    4.7552   -7.0685 O.2       6 UNK        -0.5248 
     44 N          24.7935    2.5485   -7.5689 N.am      7 UNK        -0.4718 
     45 CA         24.9769    2.6602   -9.0191 C.3       7 UNK         0.0273 
     46 CB         24.6564    1.3008   -9.6627 C.3       7 UNK        -0.1935 
     47 C          26.3868    3.1264   -9.4335 C.2       7 UNK         0.5018 
     48 O          26.5827    3.4439  -10.6073 O.2       7 UNK        -0.5186 
     49 N          27.3306    3.1507   -8.4799 N.am      8 UNK        -0.4240 
     50 CA         28.7442    3.5078   -8.6201 C.3       8 UNK         0.0235 
     51 CB         28.9070    4.9941   -9.0051 C.3       8 UNK        -0.2000 
     52 C          29.5012    2.5472   -9.5552 C.2       8 UNK         0.4941 
     53 O          30.2188    2.9932  -10.4524 O.2       8 UNK        -0.5273 
     54 N          29.3417    1.2364   -9.3145 N.am      9 UNK        -0.4262 
     55 CA         30.0107    0.1587  -10.0555 C.3       9 UNK         0.0264 
     56 CB         29.3724   -1.1855   -9.6689 C.3       9 UNK        -0.1955 
     57 C          31.5383    0.0975   -9.8508 C.2       9 UNK         0.5031 
     58 O          32.2212   -0.5550  -10.6428 O.2       9 UNK        -0.5390 
     59 N          32.0423    0.7411   -8.7841 N.am      10 UNK        -0.4204 
     60 CA         33.4584    0.8911   -8.4110 C.3       10 UNK         0.0237 
     61 CB         34.1791    1.8143   -9.4166 C.3       10 UNK        -0.1985 
     62 C          34.2037   -0.4438   -8.1998 C.2       10 UNK         0.4970 
     63 O          35.4224   -0.4988   -8.3741 O.2       10 UNK        -0.4914 
     64 N          33.4512   -1.4899   -7.8335 N.am      11 UNK        -0.4285 
     65 CA         33.9104   -2.8768   -7.6541 C.3       11 UNK         0.1007 
     66 C          34.3733   -3.5745   -8.9703 C.2       11 UNK         0.5703 
     67 N          34.0167   -3.0701  -10.1475 N.am      11 UNK        -0.7361 
     68 O          35.0363   -4.6085   -8.9284 O.2       11 UNK        -0.4986 
     69 C69        34.9218   -3.0534   -6.4774 C.3       12 UNK        -0.0947 
     70 S70        34.5015   -2.1612   -4.9352 S.3       12 UNK        -0.2240 
     71 C71        32.8436   -2.8040   -4.5549 C.3       12 UNK         0.0194 
     72 H72        29.4090   -4.8726   -5.9282 H         1 UNK         0.0906 
     73 H73        29.9610   -3.3775   -5.1799 H         1 UNK         0.0906 
     74 H74        30.7147   -4.9245   -4.7421 H         1 UNK         0.0906 
     75 H75        29.4501   -2.9806   -2.8856 H         1 UNK         0.3140 
     76 H76        27.5969   -4.7523   -1.5075 H         1 UNK         0.1085 
     77 H77        27.6043   -2.9931    0.2616 H         1 UNK         0.0836 
     78 H78        28.5511   -1.9404   -0.7520 H         1 UNK         0.0836 
     79 H79        32.0049   -2.8194    0.5763 H         1 UNK         0.0731 
     80 H80        30.7160   -1.6851    0.8877 H         1 UNK         0.0731 
     81 H81        32.2756   -3.5725   -1.9872 H         1 UNK         0.1312 
     82 H82        31.9022   -0.2655   -4.6904 H         1 UNK         0.1406 
     83 H83        30.4378    0.0724   -0.6742 H         1 UNK         0.1631 
     84 H84        30.7045    1.6905   -4.0843 H         1 UNK         0.0717 
     85 H85        31.4380    2.1684   -2.5772 H         1 UNK         0.0717 
     86 H86        28.3969   -0.2652   -2.9321 H         1 UNK         0.0934 
     87 H87        27.0113    0.7095   -2.5573 H         1 UNK         0.0934 
     88 H88        28.6680    1.0048   -5.1120 H         1 UNK         0.0739 
     89 H89        26.6708   -0.9510   -4.5492 H         1 UNK         0.3093 
     90 H90        25.8812   -1.5726   -8.0101 H         1 UNK         0.0818 
     91 H91        27.9716   -2.8780   -7.4185 H         1 UNK         0.0819 
     92 H92        26.5113   -3.8522   -7.3676 H         1 UNK         0.0819 
     93 H93        27.2359   -3.2789   -5.8698 H         1 UNK         0.0819 
     94 H94        24.8482   -2.8042   -5.6665 H         1 UNK         0.3041 
     95 H95        22.0799   -0.5920   -5.1799 H         1 UNK         0.0784 
     96 H96        21.4694   -2.1264   -7.0075 H         1 UNK         0.0793 
     97 H97        22.3217   -3.4549   -6.2411 H         1 UNK         0.0793 
     98 H98        20.8984   -2.7566   -5.4710 H         1 UNK         0.0793 
     99 H99        22.7476   -1.2766   -3.2203 H         1 UNK         0.3024 
    100 H100       23.9210   -2.1355   -1.6123 H         1 UNK         0.1171 
    101 H101       23.1454   -4.0863   -0.2831 H         1 UNK         0.0786 
    102 H102       21.9633   -3.7088   -1.5241 H         1 UNK         0.0786 
    103 H103       23.0464   -5.0762   -1.7405 H         1 UNK         0.0786 
    104 H104       25.4258   -4.4278   -1.1881 H         1 UNK         0.2977 
    105 H105       25.1389    1.2451   -4.6306 H         1 UNK         0.3127 
    106 H106       24.9912    4.1133   -4.6699 H         1 UNK         0.0770 
    107 H107       22.8364    2.0123   -5.2656 H         1 UNK         0.0814 
    108 H108       22.5528    3.7185   -4.9638 H         1 UNK         0.0814 
    109 H109       23.1946    2.7044   -3.6828 H         1 UNK         0.0814 
    110 H110       24.7208    1.6035   -7.1971 H         1 UNK         0.2983 
    111 H111       24.2668    3.3984   -9.3980 H         1 UNK         0.0947 
    112 H112       24.7316    1.3525  -10.7497 H         1 UNK         0.0806 
    113 H113       23.6436    0.9764   -9.4231 H         1 UNK         0.0806 
    114 H114       25.3452    0.5260   -9.3240 H         1 UNK         0.0806 
    115 H115       27.0541    2.8481   -7.5545 H         1 UNK         0.3000 
    116 H116       29.1859    3.3789   -7.6307 H         1 UNK         0.0850 
    117 H117       29.9573    5.2875   -8.9893 H         1 UNK         0.0810 
    118 H118       28.3788    5.6434   -8.3068 H         1 UNK         0.0810 
    119 H119       28.5287    5.1998  -10.0069 H         1 UNK         0.0810 
    120 H120       28.6914    0.9468   -8.5838 H         1 UNK         0.3040 
    121 H121       29.8348    0.3284  -11.1197 H         1 UNK         0.0766 
    122 H122       28.2990   -1.1856   -9.8603 H         1 UNK         0.0812 
    123 H123       29.5244   -1.4111   -8.6131 H         1 UNK         0.0812 
    124 H124       29.8040   -2.0057  -10.2445 H         1 UNK         0.0812 
    125 H125       31.3812    1.2178   -8.1876 H         1 UNK         0.3205 
    126 H126       33.4665    1.3909   -7.4413 H         1 UNK         0.0754 
    127 H127       35.1880    2.0549   -9.0792 H         1 UNK         0.0769 
    128 H128       33.6472    2.7579   -9.5396 H         1 UNK         0.0769 
    129 H129       34.2659    1.3491  -10.3992 H         1 UNK         0.0769 
    130 H130       32.4585   -1.3436   -7.7389 H         1 UNK         0.2981 
    131 H131       33.0143   -3.4368   -7.3904 H         1 UNK         0.0541 
    132 H132       33.4637   -2.2230  -10.2081 H         1 UNK         0.3459 
    133 H133       34.3120   -3.5361  -10.9903 H         1 UNK         0.3459 
    134 H134       35.0296   -4.1112   -6.2316 H         1 UNK         0.0612 
    135 H135       35.9127   -2.7152   -6.7846 H         1 UNK         0.0612 
    136 H136       32.2149   -2.7508   -5.4413 H         1 UNK         0.0624 
    137 H137       32.9229   -3.8575   -4.2833 H         1 UNK         0.0624 
@<TRIPOS>BOND
     1    1    2 1    
     2    1   72 1    
     3    1   73 1    
     4    1   74 1    
     5    2    3 2    
     6    2    4 am   BACKBONE|DICT|INTERRES
     7    4    5 1    
     8    4   75 1    
     9    5    6 1    
    10    5   35 1    
    11    5   76 1    
    12    6    7 1    
    13    6   77 1    
    14    6   78 1    
    15    7    8 1    
    16    8    9 1    
    17    8   79 1    
    18    8   80 1    
    19    9   10 ar   
    20    9   14 ar   
    21   10   11 ar   
    22   10   81 1    
    23   11   12 ar   
    24   11   71 1    
    25   12   13 ar   
    26   12   82 1    
    27   13   14 ar   
    28   13   15 1    
    29   14   83 1    
    30   15   16 1    
    31   15   84 1    
    32   15   85 1    
    33   16   17 1    
    34   17   18 1    
    35   17   86 1    
    36   17   87 1    
    37   18   19 1    
    38   18   37 1    
    39   18   88 1    
    40   19   20 am   BACKBONE|DICT|INTERRES
    41   19   89 1    
    42   20   21 2    
    43   20   22 1    
    44   22   23 1    
    45   22   24 1    
    46   22   90 1    
    47   23   91 1    
    48   23   92 1    
    49   23   93 1    
    50   24   25 am   BACKBONE|DICT|INTERRES
    51   24   94 1    
    52   25   26 2    
    53   25   27 1    
    54   27   28 1    
    55   27   29 1    
    56   27   95 1    
    57   28   96 1    
    58   28   97 1    
    59   28   98 1    
    60   29   30 am   BACKBONE|DICT|INTERRES
    61   29   99 1    
    62   30   31 2    
    63   30   32 1    
    64   32   33 1    
    65   32   34 1    
    66   32  100 1    
    67   33  101 1    
    68   33  102 1    
    69   33  103 1    
    70   34   35 am   BACKBONE|DICT|INTERRES
    71   34  104 1    
    72   35   36 2    
    73   37   38 2    
    74   37   39 am   BACKBONE|DICT|INTERRES
    75   39   40 1    
    76   39  105 1    
    77   40   41 1    
    78   40   42 1    
    79   40  106 1    
    80   41  107 1    
    81   41  108 1    
    82   41  109 1    
    83   42   43 2    
    84   42   44 am   BACKBONE|DICT|INTERRES
    85   44   45 1    
    86   44  110 1    
    87   45   46 1    
    88   45   47 1    
    89   45  111 1    
    90   46  112 1    
    91   46  113 1    
    92   46  114 1    
    93   47   48 2    
    94   47   49 am   BACKBONE|DICT|INTERRES
    95   49   50 1    
    96   49  115 1    
    97   50   51 1    
    98   50   52 1    
    99   50  116 1    
   100   51  117 1    
   101   51  118 1    
   102   51  119 1    
   103   52   53 2    
   104   52   54 am   BACKBONE|DICT|INTERRES
   105   54   55 1    
   106   54  120 1    
   107   55   56 1    
   108   55   57 1    
   109   55  121 1    
   110   56  122 1    
   111   56  123 1    
   112   56  124 1    
   113   57   58 2    
   114   57   59 am   BACKBONE|DICT|INTERRES
   115   59   60 1    
   116   59  125 1    
   117   60   61 1    
   118   60   62 1    
   119   60  126 1    
   120   61  127 1    
   121   61  128 1    
   122   61  129 1    
   123   62   63 2    
   124   62   64 am   BACKBONE|DICT|INTERRES
   125   64   65 1    
   126   64  130 1    
   127   65   66 1    
   128   65   69 1    
   129   65  131 1    
   130   66   67 am   BACKBONE|DICT|INTERRES
   131   66   68 2    
   132   67  132 1    
   133   67  133 1    
   134   69   70 1    
   135   69  134 1    
   136   69  135 1    
   137   70   71 1    
   138   71  136 1    
   139   71  137 1    
@<TRIPOS>SUBSTRUCTURE
     1 UNK         1 GROUP             0       ****    0 ROOT    
