@<TRIPOS>MOLECULE
3R137
137   139    1
SMALL
USER_CHARGES


@<TRIPOS>ATOM
      1 CA         25.3801   -4.9541   -0.3029 C.3       0 UNK        -0.2020 
      2 C          26.2013   -3.6956   -0.5371 C.2       0 UNK         0.4855 
      3 O          26.2796   -3.2263   -1.6729 O.2       0 UNK        -0.5197 
      4 N          26.7857   -3.1450    0.5393 N.am      1 UNK        -0.4892 
      5 CA         27.7296   -2.0112    0.6046 C.3       1 UNK         0.0835 
      6 C6         29.2284   -2.4341    0.4843 C.3       12 UNK        -0.0855 
      7 S7         29.6872   -3.5247   -0.9104 S.3       12 UNK        -0.2931 
      8 C8         29.6844   -2.3482   -2.2936 C.3       12 UNK         0.0378 
      9 C9         30.2246   -2.9726   -3.5681 C.ar      12 UNK        -0.0802 
     10 C10        31.5202   -2.6827   -4.0039 C.ar      12 UNK        -0.0944 
     11 C11        32.0097   -3.2367   -5.1905 C.ar      12 UNK        -0.0787 
     12 C12        31.1900   -4.0847   -5.9433 C.ar      12 UNK        -0.0862 
     13 C13        29.8970   -4.3948   -5.5078 C.ar      12 UNK        -0.0733 
     14 C14        29.4208   -3.8345   -4.3183 C.ar      12 UNK        -0.0832 
     15 C15        29.0361   -5.3724   -6.2972 C.3       12 UNK         0.0240 
     16 S16        28.1630   -4.5800   -7.6848 S.3       12 UNK        -0.2522 
     17 C17        26.8564   -3.6392   -6.8230 C.3       12 UNK        -0.0967 
     18 CA         26.6771   -2.2015   -7.3658 C.3       5 UNK         0.0660 
     19 N          25.4217   -1.6168   -6.8876 N.am      5 UNK        -0.4015 
     20 C          24.9277   -0.4076   -7.1784 C.2       4 UNK         0.4946 
     21 O          25.4977    0.4026   -7.9108 O.2       4 UNK        -0.5353 
     22 CA         23.5910   -0.0121   -6.5219 C.3       4 UNK         0.0277 
     23 CB         22.4058   -0.4490   -7.4032 C.3       4 UNK        -0.1981 
     24 N          23.4117   -0.4557   -5.1269 N.am      4 UNK        -0.4209 
     25 C          23.3281   -1.6986   -4.6292 C.2       3 UNK         0.4942 
     26 O          23.4458   -2.7175   -5.3127 O.2       3 UNK        -0.5208 
     27 CA         23.1214   -1.8135   -3.1076 C.3       3 UNK         0.0250 
     28 CB         22.9414   -3.2711   -2.6446 C.3       3 UNK        -0.1990 
     29 N          24.2232   -1.2032   -2.3548 N.am      3 UNK        -0.4232 
     30 C          24.3432    0.1111   -2.1104 C.2       2 UNK         0.4993 
     31 O          23.5653    0.9470   -2.5744 O.2       2 UNK        -0.5286 
     32 CA         25.5023    0.5804   -1.2129 C.3       2 UNK         0.0209 
     33 CB         25.0874    1.7383   -0.2849 C.3       2 UNK        -0.1931 
     34 N          26.0459   -0.5149   -0.4060 N.am      2 UNK        -0.4546 
     35 C          27.3501   -0.7504   -0.2153 C.2       1 UNK         0.5154 
     36 O          28.2329   -0.0043   -0.6423 O.2       1 UNK        -0.5181 
     37 C          27.9004   -1.3024   -7.0881 C.2       5 UNK         0.5014 
     38 O          28.7554   -1.1693   -7.9623 O.2       5 UNK        -0.5248 
     39 N          27.9198   -0.6377   -5.9219 N.am      6 UNK        -0.4434 
     40 CA         28.9433    0.3376   -5.5340 C.3       6 UNK         0.0363 
     41 CB         28.6463    0.8642   -4.1218 C.3       6 UNK        -0.1936 
     42 C          29.0728    1.5226   -6.5071 C.2       6 UNK         0.5081 
     43 O          30.1858    1.9982   -6.7310 O.2       6 UNK        -0.5248 
     44 N          27.9442    1.9710   -7.0719 N.am      7 UNK        -0.4718 
     45 CA         27.9025    3.0217   -8.0858 C.3       7 UNK         0.0273 
     46 CB         26.5471    3.7455   -8.0314 C.3       7 UNK        -0.1935 
     47 C          28.1640    2.4467   -9.4837 C.2       7 UNK         0.5018 
     48 O          28.9567    3.0220  -10.2282 O.2       7 UNK        -0.5186 
     49 N          27.5161    1.3171   -9.8073 N.am      8 UNK        -0.4240 
     50 CA         27.5972    0.6502  -11.1115 C.3       8 UNK         0.0235 
     51 CB         26.5841   -0.5035  -11.1689 C.3       8 UNK        -0.2000 
     52 C          29.0087    0.1531  -11.4691 C.2       8 UNK         0.4941 
     53 O          29.4366    0.3303  -12.6102 O.2       8 UNK        -0.5273 
     54 N          29.7146   -0.4320  -10.4919 N.am      9 UNK        -0.4262 
     55 CA         31.1049   -0.8772  -10.6249 C.3       9 UNK         0.0264 
     56 CB         31.3411   -2.0659   -9.6770 C.3       9 UNK        -0.1955 
     57 C          32.1249    0.2466  -10.3558 C.2       9 UNK         0.5031 
     58 O          33.3201    0.0172  -10.5471 O.2       9 UNK        -0.5390 
     59 N          31.6498    1.4239   -9.9165 N.am      10 UNK        -0.4204 
     60 CA         32.4181    2.6147   -9.5301 C.3       10 UNK         0.0237 
     61 CB         33.1077    3.2464  -10.7582 C.3       10 UNK        -0.1985 
     62 C          33.3846    2.3589   -8.3553 C.2       10 UNK         0.4970 
     63 O          34.4918    2.9008   -8.3353 O.2       10 UNK        -0.4914 
     64 N          32.9398    1.5414   -7.3953 N.am      11 UNK        -0.4285 
     65 CA         33.6504    1.2434   -6.1453 C.3       11 UNK         0.1007 
     66 C          33.4653    2.3522   -5.0732 C.2       11 UNK         0.5703 
     67 N          32.3710    3.1053   -5.0926 N.am      11 UNK        -0.7361 
     68 O          34.3298    2.5342   -4.2194 O.2       11 UNK        -0.4986 
     69 C69        33.2451   -0.1369   -5.5694 C.3       12 UNK        -0.0947 
     70 S70        33.5385   -1.5051   -6.7382 S.3       12 UNK        -0.2240 
     71 C71        33.4364   -2.9499   -5.6385 C.3       12 UNK         0.0194 
     72 H72        25.6245   -5.4260    0.6486 H         1 UNK         0.0906 
     73 H73        24.3168   -4.7192   -0.3046 H         1 UNK         0.0906 
     74 H74        25.5711   -5.6785   -1.0943 H         1 UNK         0.0906 
     75 H75        26.6228   -3.5893    1.4329 H         1 UNK         0.3140 
     76 H76        27.6228   -1.6494    1.6289 H         1 UNK         0.1085 
     77 H77        29.8923   -1.5676    0.4926 H         1 UNK         0.0836 
     78 H78        29.4943   -2.9848    1.3878 H         1 UNK         0.0836 
     79 H79        30.2585   -1.4594   -2.0264 H         1 UNK         0.0731 
     80 H80        28.6594   -2.0233   -2.4700 H         1 UNK         0.0731 
     81 H81        32.1500   -2.0275   -3.4181 H         1 UNK         0.1312 
     82 H82        31.5646   -4.5180   -6.8607 H         1 UNK         0.1406 
     83 H83        28.4289   -4.0757   -3.9602 H         1 UNK         0.1631 
     84 H84        28.3120   -5.8625   -5.6443 H         1 UNK         0.0717 
     85 H85        29.6674   -6.1685   -6.6948 H         1 UNK         0.0717 
     86 H86        25.9293   -4.2000   -6.9553 H         1 UNK         0.0934 
     87 H87        27.0332   -3.6221   -5.7481 H         1 UNK         0.0934 
     88 H88        26.5752   -2.2720   -8.4489 H         1 UNK         0.0739 
     89 H89        24.8345   -2.2085   -6.3012 H         1 UNK         0.3093 
     90 H90        23.5834    1.0785   -6.4833 H         1 UNK         0.0818 
     91 H91        21.4589   -0.0907   -6.9994 H         1 UNK         0.0819 
     92 H92        22.5011   -0.0440   -8.4118 H         1 UNK         0.0819 
     93 H93        22.3419   -1.5337   -7.4952 H         1 UNK         0.0819 
     94 H94        23.3553    0.2929   -4.4405 H         1 UNK         0.3041 
     95 H95        22.1960   -1.2832   -2.8719 H         1 UNK         0.0784 
     96 H96        22.1067   -3.7457   -3.1623 H         1 UNK         0.0793 
     97 H97        23.8305   -3.8711   -2.8425 H         1 UNK         0.0793 
     98 H98        22.7280   -3.3225   -1.5772 H         1 UNK         0.0793 
     99 H99        24.9591   -1.8339   -2.0454 H         1 UNK         0.3024 
    100 H100       26.2687    0.9510   -1.8973 H         1 UNK         0.1171 
    101 H101       25.9291    2.0849    0.3150 H         1 UNK         0.0786 
    102 H102       24.7281    2.5950   -0.8566 H         1 UNK         0.0786 
    103 H103       24.2897    1.4405    0.3965 H         1 UNK         0.0786 
    104 H104       25.3787   -1.1661   -0.0154 H         1 UNK         0.2977 
    105 H105       27.1668   -0.7941   -5.2694 H         1 UNK         0.3127 
    106 H106       29.8983   -0.1895   -5.5182 H         1 UNK         0.0770 
    107 H107       27.7070    1.4171   -4.0846 H         1 UNK         0.0814 
    108 H108       29.4346    1.5394   -3.7856 H         1 UNK         0.0814 
    109 H109       28.5862    0.0580   -3.3950 H         1 UNK         0.0814 
    110 H110       27.0783    1.4766   -6.8967 H         1 UNK         0.2983 
    111 H111       28.6829    3.7567   -7.8742 H         1 UNK         0.0947 
    112 H112       26.5062    4.5488   -8.7683 H         1 UNK         0.0806 
    113 H113       26.3788    4.1955   -7.0530 H         1 UNK         0.0806 
    114 H114       25.7141    3.0727   -8.2377 H         1 UNK         0.0806 
    115 H115       26.8690    0.9226   -9.1283 H         1 UNK         0.3000 
    116 H116       27.3100    1.3870  -11.8648 H         1 UNK         0.0850 
    117 H117       26.5496   -0.9400  -12.1679 H         1 UNK         0.0810 
    118 H118       25.5766   -0.1643  -10.9267 H         1 UNK         0.0810 
    119 H119       26.8466   -1.3019  -10.4766 H         1 UNK         0.0810 
    120 H120       29.2816   -0.5829   -9.5794 H         1 UNK         0.3040 
    121 H121       31.2714   -1.2267  -11.6460 H         1 UNK         0.0766 
    122 H122       31.2273   -1.7758   -8.6322 H         1 UNK         0.0812 
    123 H123       32.3484   -2.4678   -9.7929 H         1 UNK         0.0812 
    124 H124       30.6413   -2.8784   -9.8732 H         1 UNK         0.0812 
    125 H125       30.6457    1.5180   -9.8340 H         1 UNK         0.3205 
    126 H126       31.6859    3.3342   -9.1603 H         1 UNK         0.0754 
    127 H127       33.5655    4.2025  -10.5017 H         1 UNK         0.0769 
    128 H128       32.3923    3.4359  -11.5586 H         1 UNK         0.0769 
    129 H129       33.8948    2.6050  -11.1558 H         1 UNK         0.0769 
    130 H130       31.9798    1.2245   -7.4416 H         1 UNK         0.2981 
    131 H131       34.7186    1.2004   -6.3669 H         1 UNK         0.0541 
    132 H132       32.2528    3.8295   -4.4028 H         1 UNK         0.3459 
    133 H133       31.6325    2.9078   -5.7600 H         1 UNK         0.3459 
    134 H134       32.1908   -0.1396   -5.2927 H         1 UNK         0.0612 
    135 H135       33.8065   -0.3426   -4.6562 H         1 UNK         0.0612 
    136 H136       33.8357   -3.8163   -6.1678 H         1 UNK         0.0624 
    137 H137       34.0854   -2.7994   -4.7745 H         1 UNK         0.0624 
@<TRIPOS>BOND
     1    1    2 1    
     2    1   72 1    
     3    1   73 1    
     4    1   74 1    
     5    2    3 2    
     6    2    4 am   BACKBONE|DICT|INTERRES
     7    4    5 1    
     8    4   75 1    
     9    5    6 1    
    10    5   35 1    
    11    5   76 1    
    12    6    7 1    
    13    6   77 1    
    14    6   78 1    
    15    7    8 1    
    16    8    9 1    
    17    8   79 1    
    18    8   80 1    
    19    9   10 ar   
    20    9   14 ar   
    21   10   11 ar   
    22   10   81 1    
    23   11   12 ar   
    24   11   71 1    
    25   12   13 ar   
    26   12   82 1    
    27   13   14 ar   
    28   13   15 1    
    29   14   83 1    
    30   15   16 1    
    31   15   84 1    
    32   15   85 1    
    33   16   17 1    
    34   17   18 1    
    35   17   86 1    
    36   17   87 1    
    37   18   19 1    
    38   18   37 1    
    39   18   88 1    
    40   19   20 am   BACKBONE|DICT|INTERRES
    41   19   89 1    
    42   20   21 2    
    43   20   22 1    
    44   22   23 1    
    45   22   24 1    
    46   22   90 1    
    47   23   91 1    
    48   23   92 1    
    49   23   93 1    
    50   24   25 am   BACKBONE|DICT|INTERRES
    51   24   94 1    
    52   25   26 2    
    53   25   27 1    
    54   27   28 1    
    55   27   29 1    
    56   27   95 1    
    57   28   96 1    
    58   28   97 1    
    59   28   98 1    
    60   29   30 am   BACKBONE|DICT|INTERRES
    61   29   99 1    
    62   30   31 2    
    63   30   32 1    
    64   32   33 1    
    65   32   34 1    
    66   32  100 1    
    67   33  101 1    
    68   33  102 1    
    69   33  103 1    
    70   34   35 am   BACKBONE|DICT|INTERRES
    71   34  104 1    
    72   35   36 2    
    73   37   38 2    
    74   37   39 am   BACKBONE|DICT|INTERRES
    75   39   40 1    
    76   39  105 1    
    77   40   41 1    
    78   40   42 1    
    79   40  106 1    
    80   41  107 1    
    81   41  108 1    
    82   41  109 1    
    83   42   43 2    
    84   42   44 am   BACKBONE|DICT|INTERRES
    85   44   45 1    
    86   44  110 1    
    87   45   46 1    
    88   45   47 1    
    89   45  111 1    
    90   46  112 1    
    91   46  113 1    
    92   46  114 1    
    93   47   48 2    
    94   47   49 am   BACKBONE|DICT|INTERRES
    95   49   50 1    
    96   49  115 1    
    97   50   51 1    
    98   50   52 1    
    99   50  116 1    
   100   51  117 1    
   101   51  118 1    
   102   51  119 1    
   103   52   53 2    
   104   52   54 am   BACKBONE|DICT|INTERRES
   105   54   55 1    
   106   54  120 1    
   107   55   56 1    
   108   55   57 1    
   109   55  121 1    
   110   56  122 1    
   111   56  123 1    
   112   56  124 1    
   113   57   58 2    
   114   57   59 am   BACKBONE|DICT|INTERRES
   115   59   60 1    
   116   59  125 1    
   117   60   61 1    
   118   60   62 1    
   119   60  126 1    
   120   61  127 1    
   121   61  128 1    
   122   61  129 1    
   123   62   63 2    
   124   62   64 am   BACKBONE|DICT|INTERRES
   125   64   65 1    
   126   64  130 1    
   127   65   66 1    
   128   65   69 1    
   129   65  131 1    
   130   66   67 am   BACKBONE|DICT|INTERRES
   131   66   68 2    
   132   67  132 1    
   133   67  133 1    
   134   69   70 1    
   135   69  134 1    
   136   69  135 1    
   137   70   71 1    
   138   71  136 1    
   139   71  137 1    
@<TRIPOS>SUBSTRUCTURE
     1 UNK         1 GROUP             0       ****    0 ROOT    
