@<TRIPOS>MOLECULE
3R137
137   139    1
SMALL
USER_CHARGES


@<TRIPOS>ATOM
      1 CA         27.2100   -7.3067   -0.7540 C.3       0 UNK        -0.2020 
      2 C          27.1853   -5.7872   -0.8074 C.2       0 UNK         0.4855 
      3 O          27.2870   -5.2148   -1.8914 O.2       0 UNK        -0.5197 
      4 N          27.0360   -5.1309    0.3522 N.am      1 UNK        -0.4892 
      5 CA         26.9997   -3.6747    0.5756 C.3       1 UNK         0.0835 
      6 C6         28.3399   -2.9531    0.1901 C.3       12 UNK        -0.0855 
      7 S7         28.2552   -1.3908   -0.7687 S.3       12 UNK        -0.2931 
      8 C8         29.9980   -1.1644   -1.2528 C.3       12 UNK         0.0378 
      9 C9         30.4226   -1.8413   -2.5585 C.ar      12 UNK        -0.0802 
     10 C10        31.5621   -1.3553   -3.2050 C.ar      12 UNK        -0.0944 
     11 C11        32.0383   -1.9549   -4.3727 C.ar      12 UNK        -0.0787 
     12 C12        31.3644   -3.0595   -4.9027 C.ar      12 UNK        -0.0862 
     13 C13        30.2172   -3.5569   -4.2766 C.ar      12 UNK        -0.0733 
     14 C14        29.7478   -2.9390   -3.1118 C.ar      12 UNK        -0.0832 
     15 C15        29.5225   -4.8003   -4.8219 C.3       12 UNK         0.0240 
     16 S16        28.6019   -4.4981   -6.3656 S.3       12 UNK        -0.2522 
     17 C17        27.2039   -3.4794   -5.7814 C.3       12 UNK        -0.0967 
     18 CA         26.8754   -2.2981   -6.7297 C.3       5 UNK         0.0660 
     19 N          25.6234   -1.6298   -6.3612 N.am      5 UNK        -0.4015 
     20 C          24.9689   -0.7577   -7.1458 C.2       4 UNK         0.4946 
     21 O          25.3274   -0.4614   -8.2835 O.2       4 UNK        -0.5353 
     22 CA         23.7235   -0.0621   -6.5677 C.3       4 UNK         0.0277 
     23 CB         22.4646   -0.8994   -6.8427 C.3       4 UNK        -0.1981 
     24 N          23.8237    0.2127   -5.1352 N.am      4 UNK        -0.4209 
     25 C          24.7508    0.9961   -4.5655 C.2       3 UNK         0.4942 
     26 O          25.5716    1.6575   -5.2007 O.2       3 UNK        -0.5208 
     27 CA         24.8090    0.9929   -3.0266 C.3       3 UNK         0.0250 
     28 CB         24.0183    2.1807   -2.4566 C.3       3 UNK        -0.1990 
     29 N          24.3352   -0.2546   -2.4081 N.am      3 UNK        -0.4232 
     30 C          24.8541   -1.4677   -2.6457 C.2       2 UNK         0.4993 
     31 O          25.7618   -1.6754   -3.4540 O.2       2 UNK        -0.5286 
     32 CA         24.2321   -2.6568   -1.9046 C.3       2 UNK         0.0209 
     33 CB         23.5870   -3.6385   -2.8973 C.3       2 UNK        -0.1931 
     34 N          25.2878   -3.3431   -1.1697 N.am      2 UNK        -0.4546 
     35 C          25.7009   -3.0099    0.0573 C.2       1 UNK         0.5154 
     36 O          25.0987   -2.2129    0.7800 O.2       1 UNK        -0.5181 
     37 C          28.0221   -1.2752   -6.8111 C.2       5 UNK         0.5014 
     38 O          28.7010   -1.2073   -7.8370 O.2       5 UNK        -0.5248 
     39 N          28.1641   -0.4628   -5.7528 N.am      6 UNK        -0.4434 
     40 CA         29.1477    0.6170   -5.6477 C.3       6 UNK         0.0363 
     41 CB         29.0135    1.2901   -4.2730 C.3       6 UNK        -0.1936 
     42 C          29.0235    1.6553   -6.7762 C.2       6 UNK         0.5081 
     43 O          30.0432    2.1127   -7.2964 O.2       6 UNK        -0.5248 
     44 N          27.7784    1.9869   -7.1447 N.am      7 UNK        -0.4718 
     45 CA         27.4443    2.8524   -8.2726 C.3       7 UNK         0.0273 
     46 CB         25.9652    3.2632   -8.1897 C.3       7 UNK        -0.1935 
     47 C          27.7626    2.2031   -9.6291 C.2       7 UNK         0.5018 
     48 O          28.4774    2.8114  -10.4254 O.2       7 UNK        -0.5186 
     49 N          27.2396    0.9909   -9.8738 N.am      8 UNK        -0.4240 
     50 CA         27.3706    0.2728  -11.1478 C.3       8 UNK         0.0235 
     51 CB         26.4761   -0.9769  -11.1477 C.3       8 UNK        -0.2000 
     52 C          28.8155   -0.1080  -11.5004 C.2       8 UNK         0.4941 
     53 O          29.2058    0.0291  -12.6606 O.2       8 UNK        -0.5273 
     54 N          29.5874   -0.5575  -10.5023 N.am      9 UNK        -0.4262 
     55 CA         31.0087   -0.8788  -10.6527 C.3       9 UNK         0.0264 
     56 CB         31.3975   -1.9381   -9.6095 C.3       9 UNK        -0.1955 
     57 C          31.9247    0.3595  -10.5786 C.2       9 UNK         0.5031 
     58 O          33.1196    0.2216  -10.8457 O.2       9 UNK        -0.5390 
     59 N          31.3614    1.5328  -10.2418 N.am      10 UNK        -0.4204 
     60 CA         32.0142    2.8417  -10.1113 C.3       10 UNK         0.0237 
     61 CB         32.4520    3.3703  -11.4938 C.3       10 UNK        -0.1985 
     62 C          33.1552    2.8250   -9.0773 C.2       10 UNK         0.4970 
     63 O          34.2818    3.2208   -9.3852 O.2       10 UNK        -0.4914 
     64 N          32.8337    2.3401   -7.8755 N.am      11 UNK        -0.4285 
     65 CA         33.7753    2.0959   -6.7736 C.3       11 UNK         0.1007 
     66 C          33.2663    2.5865   -5.3891 C.2       11 UNK         0.5703 
     67 N          32.0700    3.1527   -5.2802 N.am      11 UNK        -0.7361 
     68 O          33.9854    2.4834   -4.3981 O.2       11 UNK        -0.4986 
     69 C69        34.2596    0.6204   -6.7643 C.3       12 UNK        -0.0947 
     70 S70        32.8871   -0.5713   -6.5972 S.3       12 UNK        -0.2240 
     71 C71        33.2922   -1.4135   -5.0419 C.3       12 UNK         0.0194 
     72 H72        28.1464   -7.6797   -1.1680 H         1 UNK         0.0906 
     73 H73        27.1158   -7.6826    0.2645 H         1 UNK         0.0906 
     74 H74        26.3902   -7.7151   -1.3443 H         1 UNK         0.0906 
     75 H75        26.9205   -5.6790    1.1943 H         1 UNK         0.3140 
     76 H76        26.9173   -3.5851    1.6606 H         1 UNK         0.1085 
     77 H77        28.8902   -2.7308    1.1057 H         1 UNK         0.0836 
     78 H78        28.9946   -3.6348   -0.3531 H         1 UNK         0.0836 
     79 H79        30.1707   -0.0904   -1.3371 H         1 UNK         0.0731 
     80 H80        30.6456   -1.5116   -0.4466 H         1 UNK         0.0731 
     81 H81        32.0901   -0.5076   -2.7892 H         1 UNK         0.1312 
     82 H82        31.7340   -3.5327   -5.8023 H         1 UNK         0.1406 
     83 H83        28.8634   -3.3322   -2.6327 H         1 UNK         0.1631 
     84 H84        30.2735   -5.5681   -5.0124 H         1 UNK         0.0717 
     85 H85        28.8437   -5.2236   -4.0805 H         1 UNK         0.0717 
     86 H86        26.3362   -4.1346   -5.6910 H         1 UNK         0.0934 
     87 H87        27.4093   -3.1211   -4.7724 H         1 UNK         0.0934 
     88 H88        26.7347   -2.7080   -7.7325 H         1 UNK         0.0739 
     89 H89        25.3294   -1.7452   -5.3968 H         1 UNK         0.3093 
     90 H90        23.6157    0.8964   -7.0796 H         1 UNK         0.0818 
     91 H91        21.5626   -0.3790   -6.5202 H         1 UNK         0.0819 
     92 H92        22.3563   -1.0993   -7.9098 H         1 UNK         0.0819 
     93 H93        22.4987   -1.8631   -6.3327 H         1 UNK         0.0819 
     94 H94        23.1842   -0.2805   -4.5300 H         1 UNK         0.3041 
     95 H95        25.8579    1.1135   -2.7469 H         1 UNK         0.0784 
     96 H96        24.3678    3.1221   -2.8835 H         1 UNK         0.0793 
     97 H97        22.9527    2.0997   -2.6746 H         1 UNK         0.0793 
     98 H98        24.1368    2.2550   -1.3754 H         1 UNK         0.0793 
     99 H99        23.5915   -0.1656   -1.7302 H         1 UNK         0.3024 
    100 H100       23.4640   -2.3043   -1.2125 H         1 UNK         0.1171 
    101 H101       23.1383   -4.4857   -2.3784 H         1 UNK         0.0786 
    102 H102       22.7962   -3.1530   -3.4705 H         1 UNK         0.0786 
    103 H103       24.3139   -4.0320   -3.6095 H         1 UNK         0.0786 
    104 H104       25.8925   -3.9657   -1.7004 H         1 UNK         0.2977 
    105 H105       27.5447   -0.5922   -4.9641 H         1 UNK         0.3127 
    106 H106       30.1370    0.1619   -5.7158 H         1 UNK         0.0770 
    107 H107       28.0633    1.8141   -4.1679 H         1 UNK         0.0814 
    108 H108       29.8064    2.0206   -4.1166 H         1 UNK         0.0814 
    109 H109       29.0811    0.5621   -3.4663 H         1 UNK         0.0814 
    110 H110       27.0016    1.6180   -6.6039 H         1 UNK         0.2983 
    111 H111       28.0504    3.7574   -8.1895 H         1 UNK         0.0947 
    112 H112       25.6972    3.9272   -9.0126 H         1 UNK         0.0806 
    113 H113       25.7545    3.7947   -7.2614 H         1 UNK         0.0806 
    114 H114       25.3006    2.4001   -8.2355 H         1 UNK         0.0806 
    115 H115       26.6579    0.5455   -9.1665 H         1 UNK         0.3000 
    116 H116       27.0116    0.9413  -11.9333 H         1 UNK         0.0850 
    117 H117       26.5573   -1.5185  -12.0911 H         1 UNK         0.0810 
    118 H118       25.4267   -0.7126  -11.0166 H         1 UNK         0.0810 
    119 H119       26.7503   -1.6671  -10.3486 H         1 UNK         0.0810 
    120 H120       29.1881   -0.6766   -9.5711 H         1 UNK         0.3040 
    121 H121       31.1666   -1.3219  -11.6383 H         1 UNK         0.0766 
    122 H122       30.8546   -2.8692   -9.7715 H         1 UNK         0.0812 
    123 H123       31.1762   -1.6018   -8.5982 H         1 UNK         0.0812 
    124 H124       32.4625   -2.1696   -9.6535 H         1 UNK         0.0812 
    125 H125       30.3678    1.5339  -10.0488 H         1 UNK         0.3205 
    126 H126       31.2562    3.5235   -9.7223 H         1 UNK         0.0754 
    127 H127       32.8513    4.3823  -11.4163 H         1 UNK         0.0769 
    128 H128       31.6109    3.4060  -12.1863 H         1 UNK         0.0769 
    129 H129       33.2277    2.7471  -11.9401 H         1 UNK         0.0769 
    130 H130       31.8695    2.0657   -7.7001 H         1 UNK         0.2981 
    131 H131       34.6591    2.7125   -6.9455 H         1 UNK         0.0541 
    132 H132       31.4482    3.2043   -6.0747 H         1 UNK         0.3459 
    133 H133       31.7712    3.4912   -4.3803 H         1 UNK         0.3459 
    134 H134       35.0035    0.4600   -5.9825 H         1 UNK         0.0612 
    135 H135       34.7710    0.4013   -7.7028 H         1 UNK         0.0612 
    136 H136       33.8051   -0.7211   -4.3728 H         1 UNK         0.0624 
    137 H137       33.9895   -2.2276   -5.2430 H         1 UNK         0.0624 
@<TRIPOS>BOND
     1    1    2 1    
     2    1   72 1    
     3    1   73 1    
     4    1   74 1    
     5    2    3 2    
     6    2    4 am   BACKBONE|DICT|INTERRES
     7    4    5 1    
     8    4   75 1    
     9    5    6 1    
    10    5   35 1    
    11    5   76 1    
    12    6    7 1    
    13    6   77 1    
    14    6   78 1    
    15    7    8 1    
    16    8    9 1    
    17    8   79 1    
    18    8   80 1    
    19    9   10 ar   
    20    9   14 ar   
    21   10   11 ar   
    22   10   81 1    
    23   11   12 ar   
    24   11   71 1    
    25   12   13 ar   
    26   12   82 1    
    27   13   14 ar   
    28   13   15 1    
    29   14   83 1    
    30   15   16 1    
    31   15   84 1    
    32   15   85 1    
    33   16   17 1    
    34   17   18 1    
    35   17   86 1    
    36   17   87 1    
    37   18   19 1    
    38   18   37 1    
    39   18   88 1    
    40   19   20 am   BACKBONE|DICT|INTERRES
    41   19   89 1    
    42   20   21 2    
    43   20   22 1    
    44   22   23 1    
    45   22   24 1    
    46   22   90 1    
    47   23   91 1    
    48   23   92 1    
    49   23   93 1    
    50   24   25 am   BACKBONE|DICT|INTERRES
    51   24   94 1    
    52   25   26 2    
    53   25   27 1    
    54   27   28 1    
    55   27   29 1    
    56   27   95 1    
    57   28   96 1    
    58   28   97 1    
    59   28   98 1    
    60   29   30 am   BACKBONE|DICT|INTERRES
    61   29   99 1    
    62   30   31 2    
    63   30   32 1    
    64   32   33 1    
    65   32   34 1    
    66   32  100 1    
    67   33  101 1    
    68   33  102 1    
    69   33  103 1    
    70   34   35 am   BACKBONE|DICT|INTERRES
    71   34  104 1    
    72   35   36 2    
    73   37   38 2    
    74   37   39 am   BACKBONE|DICT|INTERRES
    75   39   40 1    
    76   39  105 1    
    77   40   41 1    
    78   40   42 1    
    79   40  106 1    
    80   41  107 1    
    81   41  108 1    
    82   41  109 1    
    83   42   43 2    
    84   42   44 am   BACKBONE|DICT|INTERRES
    85   44   45 1    
    86   44  110 1    
    87   45   46 1    
    88   45   47 1    
    89   45  111 1    
    90   46  112 1    
    91   46  113 1    
    92   46  114 1    
    93   47   48 2    
    94   47   49 am   BACKBONE|DICT|INTERRES
    95   49   50 1    
    96   49  115 1    
    97   50   51 1    
    98   50   52 1    
    99   50  116 1    
   100   51  117 1    
   101   51  118 1    
   102   51  119 1    
   103   52   53 2    
   104   52   54 am   BACKBONE|DICT|INTERRES
   105   54   55 1    
   106   54  120 1    
   107   55   56 1    
   108   55   57 1    
   109   55  121 1    
   110   56  122 1    
   111   56  123 1    
   112   56  124 1    
   113   57   58 2    
   114   57   59 am   BACKBONE|DICT|INTERRES
   115   59   60 1    
   116   59  125 1    
   117   60   61 1    
   118   60   62 1    
   119   60  126 1    
   120   61  127 1    
   121   61  128 1    
   122   61  129 1    
   123   62   63 2    
   124   62   64 am   BACKBONE|DICT|INTERRES
   125   64   65 1    
   126   64  130 1    
   127   65   66 1    
   128   65   69 1    
   129   65  131 1    
   130   66   67 am   BACKBONE|DICT|INTERRES
   131   66   68 2    
   132   67  132 1    
   133   67  133 1    
   134   69   70 1    
   135   69  134 1    
   136   69  135 1    
   137   70   71 1    
   138   71  136 1    
   139   71  137 1    
@<TRIPOS>SUBSTRUCTURE
     1 UNK         1 GROUP             0       ****    0 ROOT    
