@<TRIPOS>MOLECULE
3R137
137   139    1
SMALL
USER_CHARGES


@<TRIPOS>ATOM
      1 CA         23.5320   -4.2900    1.9948 C.3       0 UNK        -0.2020 
      2 C          24.9742   -3.8232    1.8682 C.2       0 UNK         0.4855 
      3 O          25.4719   -3.1240    2.7506 O.2       0 UNK        -0.5197 
      4 N          25.6504   -4.2028    0.7759 N.am      1 UNK        -0.4892 
      5 CA         27.0435   -3.8391    0.4815 C.3       1 UNK         0.0835 
      6 C6         27.6558   -4.7820   -0.5895 C.3       12 UNK        -0.0855 
      7 S7         26.8075   -4.7046   -2.2119 S.3       12 UNK        -0.2931 
      8 C8         28.1695   -5.0420   -3.3837 C.3       12 UNK         0.0378 
      9 C9         29.2974   -4.0067   -3.4350 C.ar      12 UNK        -0.0802 
     10 C10        30.5122   -4.3856   -4.0154 C.ar      12 UNK        -0.0944 
     11 C11        31.5824   -3.4902   -4.0878 C.ar      12 UNK        -0.0787 
     12 C12        31.4468   -2.2138   -3.5376 C.ar      12 UNK        -0.0862 
     13 C13        30.2327   -1.7996   -2.9833 C.ar      12 UNK        -0.0733 
     14 C14        29.1606   -2.6983   -2.9486 C.ar      12 UNK        -0.0832 
     15 C15        30.0943   -0.4074   -2.3708 C.3       12 UNK         0.0240 
     16 S16        30.7982    0.9210   -3.4123 S.3       12 UNK        -0.2522 
     17 C17        29.3438    1.9330   -3.8540 C.3       12 UNK        -0.0967 
     18 CA         28.8926    1.6980   -5.3148 C.3       5 UNK         0.0660 
     19 N          28.4743    0.3184   -5.5505 N.am      5 UNK        -0.4015 
     20 C          28.3206   -0.2425   -6.7559 C.2       4 UNK         0.4946 
     21 O          28.5654    0.3265   -7.8205 O.2       4 UNK        -0.5353 
     22 CA         27.7735   -1.6791   -6.7736 C.3       4 UNK         0.0277 
     23 CB         28.9301   -2.6876   -6.7276 C.3       4 UNK        -0.1981 
     24 N          26.8298   -1.9491   -5.6795 N.am      4 UNK        -0.4209 
     25 C          25.6315   -1.3562   -5.5746 C.2       3 UNK         0.4942 
     26 O          25.2209   -0.5053   -6.3619 O.2       3 UNK        -0.5208 
     27 CA         24.7439   -1.7592   -4.3886 C.3       3 UNK         0.0250 
     28 CB         24.2218   -3.1955   -4.5595 C.3       3 UNK        -0.1990 
     29 N          25.3512   -1.6024   -3.0617 N.am      3 UNK        -0.4232 
     30 C          25.8839   -0.4743   -2.5639 C.2       2 UNK         0.4993 
     31 O          26.1556    0.5121   -3.2466 O.2       2 UNK        -0.5286 
     32 CA         26.1413   -0.4122   -1.0469 C.3       2 UNK         0.0209 
     33 CB         25.0652    0.4540   -0.3718 C.3       2 UNK        -0.1931 
     34 N          26.1375   -1.7397   -0.4265 N.am      2 UNK        -0.4546 
     35 C          27.2135   -2.3562    0.0816 C.2       1 UNK         0.5154 
     36 O          28.3160   -1.8208    0.1992 O.2       1 UNK        -0.5181 
     37 C          27.7810    2.6821   -5.7252 C.2       5 UNK         0.5014 
     38 O          28.0605    3.6372   -6.4500 O.2       5 UNK        -0.5248 
     39 N          26.5398    2.4146   -5.2907 N.am      6 UNK        -0.4434 
     40 CA         25.3433    3.1920   -5.6272 C.3       6 UNK         0.0363 
     41 CB         24.1551    2.6895   -4.7915 C.3       6 UNK        -0.1936 
     42 C          25.0034    3.1606   -7.1274 C.2       6 UNK         0.5081 
     43 O          24.6128    4.1882   -7.6816 O.2       6 UNK        -0.5248 
     44 N          25.1842    1.9950   -7.7628 N.am      7 UNK        -0.4718 
     45 CA         25.0214    1.7926   -9.2053 C.3       7 UNK         0.0273 
     46 CB         24.9204    0.2843   -9.4877 C.3       7 UNK        -0.1935 
     47 C          26.1500    2.4109  -10.0520 C.2       7 UNK         0.5018 
     48 O          25.9740    2.5366  -11.2647 O.2       7 UNK        -0.5186 
     49 N          27.2790    2.7590   -9.4141 N.am      8 UNK        -0.4240 
     50 CA         28.5299    3.2433  -10.0091 C.3       8 UNK         0.0235 
     51 CB         28.3412    4.6406  -10.6375 C.3       8 UNK        -0.2000 
     52 C          29.1428    2.2127  -10.9775 C.2       8 UNK         0.4941 
     53 O          29.5060    2.5549  -12.1057 O.2       8 UNK        -0.5273 
     54 N          29.2185    0.9582  -10.5152 N.am      9 UNK        -0.4262 
     55 CA         29.7952   -0.1774  -11.2340 C.3       9 UNK         0.0264 
     56 CB         29.1203   -1.4642  -10.7218 C.3       9 UNK        -0.1955 
     57 C          31.3300   -0.2189  -11.0859 C.2       9 UNK         0.5031 
     58 O          31.9404    0.7485  -10.6233 O.2       9 UNK        -0.5390 
     59 N          31.9342   -1.3537  -11.4694 N.am      10 UNK        -0.4204 
     60 CA         33.3826   -1.6106  -11.4736 C.3       10 UNK         0.0237 
     61 CB         33.6372   -3.0322  -12.0019 C.3       10 UNK        -0.1985 
     62 C          34.1027   -1.4056  -10.1250 C.2       10 UNK         0.4970 
     63 O          35.3079   -1.1504  -10.1272 O.2       10 UNK        -0.4914 
     64 N          33.3646   -1.4998   -9.0118 N.am      11 UNK        -0.4285 
     65 CA         33.8339   -1.1426   -7.6649 C.3       11 UNK         0.1007 
     66 C          34.0748    0.3824   -7.4485 C.2       11 UNK         0.5703 
     67 N          33.5819    1.2731   -8.3019 N.am      11 UNK        -0.7361 
     68 O          34.7360    0.7633   -6.4855 O.2       11 UNK        -0.4986 
     69 C69        32.8949   -1.7033   -6.5677 C.3       12 UNK        -0.0947 
     70 S70        32.8113   -3.5270   -6.5640 S.3       12 UNK        -0.2240 
     71 C71        32.8758   -3.8950   -4.7795 C.3       12 UNK         0.0194 
     72 H72        22.8637   -3.4315    2.0570 H         1 UNK         0.0906 
     73 H73        23.2235   -4.8993    1.1454 H         1 UNK         0.0906 
     74 H74        23.4084   -4.8839    2.9000 H         1 UNK         0.0906 
     75 H75        25.2024   -4.7891    0.0844 H         1 UNK         0.3140 
     76 H76        27.6181   -3.9727    1.4011 H         1 UNK         0.1085 
     77 H77        27.6172   -5.8136   -0.2363 H         1 UNK         0.0836 
     78 H78        28.7172   -4.5607   -0.7174 H         1 UNK         0.0836 
     79 H79        27.7434   -5.1331   -4.3837 H         1 UNK         0.0731 
     80 H80        28.5866   -6.0204   -3.1391 H         1 UNK         0.0731 
     81 H81        30.6226   -5.3790   -4.4290 H         1 UNK         0.1312 
     82 H82        32.2834   -1.5302   -3.5563 H         1 UNK         0.1406 
     83 H83        28.2263   -2.3797   -2.5171 H         1 UNK         0.1631 
     84 H84        30.6123   -0.4045   -1.4109 H         1 UNK         0.0717 
     85 H85        29.0509   -0.1930   -2.1477 H         1 UNK         0.0717 
     86 H86        28.5279    1.7586   -3.1513 H         1 UNK         0.0934 
     87 H87        29.6300    2.9778   -3.7173 H         1 UNK         0.0934 
     88 H88        29.7493    1.8949   -5.9640 H         1 UNK         0.0739 
     89 H89        28.2252   -0.2195   -4.7350 H         1 UNK         0.3093 
     90 H90        27.2381   -1.8177   -7.7153 H         1 UNK         0.0818 
     91 H91        29.5696   -2.5162   -5.8642 H         1 UNK         0.0819 
     92 H92        28.5720   -3.7163   -6.6892 H         1 UNK         0.0819 
     93 H93        29.5672   -2.6000   -7.6068 H         1 UNK         0.0819 
     94 H94        27.0952   -2.6413   -4.9948 H         1 UNK         0.3041 
     95 H95        23.8784   -1.0935   -4.4080 H         1 UNK         0.0784 
     96 H96        23.7247   -3.3170   -5.5231 H         1 UNK         0.0793 
     97 H97        25.0250   -3.9313   -4.5150 H         1 UNK         0.0793 
     98 H98        23.4931   -3.4486   -3.7892 H         1 UNK         0.0793 
     99 H99        25.2358   -2.3854   -2.4368 H         1 UNK         0.3024 
    100 H100       27.1052    0.0783   -0.9003 H         1 UNK         0.1171 
    101 H101       25.0490    1.4593   -0.7958 H         1 UNK         0.0786 
    102 H102       24.0672    0.0315   -0.4951 H         1 UNK         0.0786 
    103 H103       25.2553    0.5576    0.6967 H         1 UNK         0.0786 
    104 H104       25.2653   -2.2485   -0.4250 H         1 UNK         0.2977 
    105 H105       26.3987    1.6239   -4.6622 H         1 UNK         0.3127 
    106 H106       25.5374    4.2314   -5.3546 H         1 UNK         0.0770 
    107 H107       23.9339    1.6412   -4.9964 H         1 UNK         0.0814 
    108 H108       23.2534    3.2637   -5.0080 H         1 UNK         0.0814 
    109 H109       24.3533    2.7850   -3.7237 H         1 UNK         0.0814 
    110 H110       25.4227    1.1717   -7.2130 H         1 UNK         0.2983 
    111 H111       24.0864    2.2647   -9.5145 H         1 UNK         0.0947 
    112 H112       24.7589    0.0926  -10.5494 H         1 UNK         0.0806 
    113 H113       24.0878   -0.1662   -8.9471 H         1 UNK         0.0806 
    114 H114       25.8318   -0.2392   -9.1961 H         1 UNK         0.0806 
    115 H115       27.3108    2.6058   -8.4140 H         1 UNK         0.3000 
    116 H116       29.2382    3.3454   -9.1851 H         1 UNK         0.0850 
    117 H117       27.6750    4.6128  -11.5002 H         1 UNK         0.0810 
    118 H118       27.9277    5.3454   -9.9161 H         1 UNK         0.0810 
    119 H119       29.2950    5.0459  -10.9772 H         1 UNK         0.0810 
    120 H120       28.9373    0.7804   -9.5512 H         1 UNK         0.3040 
    121 H121       29.5700   -0.0713  -12.2972 H         1 UNK         0.0766 
    122 H122       29.3809   -2.3304  -11.3304 H         1 UNK         0.0812 
    123 H123       28.0337   -1.3771  -10.7484 H         1 UNK         0.0812 
    124 H124       29.4078   -1.6818   -9.6943 H         1 UNK         0.0812 
    125 H125       31.3545   -2.0969  -11.8317 H         1 UNK         0.3205 
    126 H126       33.8270   -0.9025  -12.1759 H         1 UNK         0.0754 
    127 H127       34.7059   -3.2472  -12.0489 H         1 UNK         0.0769 
    128 H128       33.2409   -3.1603  -13.0095 H         1 UNK         0.0769 
    129 H129       33.1813   -3.7881  -11.3609 H         1 UNK         0.0769 
    130 H130       32.3852   -1.7209   -9.0976 H         1 UNK         0.2981 
    131 H131       34.8090   -1.6150   -7.5306 H         1 UNK         0.0541 
    132 H132       33.7583    2.2514   -8.1424 H         1 UNK         0.3459 
    133 H133       33.0300    0.9878   -9.1073 H         1 UNK         0.3459 
    134 H134       31.8842   -1.3058   -6.6785 H         1 UNK         0.0612 
    135 H135       33.2472   -1.3746   -5.5900 H         1 UNK         0.0612 
    136 H136       33.0475   -4.9642   -4.6473 H         1 UNK         0.0624 
    137 H137       33.7309   -3.3905   -4.3271 H         1 UNK         0.0624 
@<TRIPOS>BOND
     1    1    2 1    
     2    1   72 1    
     3    1   73 1    
     4    1   74 1    
     5    2    3 2    
     6    2    4 am   BACKBONE|DICT|INTERRES
     7    4    5 1    
     8    4   75 1    
     9    5    6 1    
    10    5   35 1    
    11    5   76 1    
    12    6    7 1    
    13    6   77 1    
    14    6   78 1    
    15    7    8 1    
    16    8    9 1    
    17    8   79 1    
    18    8   80 1    
    19    9   10 ar   
    20    9   14 ar   
    21   10   11 ar   
    22   10   81 1    
    23   11   12 ar   
    24   11   71 1    
    25   12   13 ar   
    26   12   82 1    
    27   13   14 ar   
    28   13   15 1    
    29   14   83 1    
    30   15   16 1    
    31   15   84 1    
    32   15   85 1    
    33   16   17 1    
    34   17   18 1    
    35   17   86 1    
    36   17   87 1    
    37   18   19 1    
    38   18   37 1    
    39   18   88 1    
    40   19   20 am   BACKBONE|DICT|INTERRES
    41   19   89 1    
    42   20   21 2    
    43   20   22 1    
    44   22   23 1    
    45   22   24 1    
    46   22   90 1    
    47   23   91 1    
    48   23   92 1    
    49   23   93 1    
    50   24   25 am   BACKBONE|DICT|INTERRES
    51   24   94 1    
    52   25   26 2    
    53   25   27 1    
    54   27   28 1    
    55   27   29 1    
    56   27   95 1    
    57   28   96 1    
    58   28   97 1    
    59   28   98 1    
    60   29   30 am   BACKBONE|DICT|INTERRES
    61   29   99 1    
    62   30   31 2    
    63   30   32 1    
    64   32   33 1    
    65   32   34 1    
    66   32  100 1    
    67   33  101 1    
    68   33  102 1    
    69   33  103 1    
    70   34   35 am   BACKBONE|DICT|INTERRES
    71   34  104 1    
    72   35   36 2    
    73   37   38 2    
    74   37   39 am   BACKBONE|DICT|INTERRES
    75   39   40 1    
    76   39  105 1    
    77   40   41 1    
    78   40   42 1    
    79   40  106 1    
    80   41  107 1    
    81   41  108 1    
    82   41  109 1    
    83   42   43 2    
    84   42   44 am   BACKBONE|DICT|INTERRES
    85   44   45 1    
    86   44  110 1    
    87   45   46 1    
    88   45   47 1    
    89   45  111 1    
    90   46  112 1    
    91   46  113 1    
    92   46  114 1    
    93   47   48 2    
    94   47   49 am   BACKBONE|DICT|INTERRES
    95   49   50 1    
    96   49  115 1    
    97   50   51 1    
    98   50   52 1    
    99   50  116 1    
   100   51  117 1    
   101   51  118 1    
   102   51  119 1    
   103   52   53 2    
   104   52   54 am   BACKBONE|DICT|INTERRES
   105   54   55 1    
   106   54  120 1    
   107   55   56 1    
   108   55   57 1    
   109   55  121 1    
   110   56  122 1    
   111   56  123 1    
   112   56  124 1    
   113   57   58 2    
   114   57   59 am   BACKBONE|DICT|INTERRES
   115   59   60 1    
   116   59  125 1    
   117   60   61 1    
   118   60   62 1    
   119   60  126 1    
   120   61  127 1    
   121   61  128 1    
   122   61  129 1    
   123   62   63 2    
   124   62   64 am   BACKBONE|DICT|INTERRES
   125   64   65 1    
   126   64  130 1    
   127   65   66 1    
   128   65   69 1    
   129   65  131 1    
   130   66   67 am   BACKBONE|DICT|INTERRES
   131   66   68 2    
   132   67  132 1    
   133   67  133 1    
   134   69   70 1    
   135   69  134 1    
   136   69  135 1    
   137   70   71 1    
   138   71  136 1    
   139   71  137 1    
@<TRIPOS>SUBSTRUCTURE
     1 UNK         1 GROUP             0       ****    0 ROOT    
