@<TRIPOS>MOLECULE
3R137
137   139    1
SMALL
USER_CHARGES


@<TRIPOS>ATOM
      1 CA         30.0893   -3.6684    3.1894 C.3       0 UNK        -0.2020 
      2 C          29.5948   -3.2124    1.8255 C.2       0 UNK         0.4855 
      3 O          29.9609   -2.1284    1.3695 O.2       0 UNK        -0.5197 
      4 N          28.7515   -4.0204    1.1713 N.am      1 UNK        -0.4892 
      5 CA         28.1920   -3.7843   -0.1675 C.3       1 UNK         0.0835 
      6 C6         27.7761   -5.1147   -0.8512 C.3       12 UNK        -0.0855 
      7 S7         29.1601   -6.2918   -1.0267 S.3       12 UNK        -0.2931 
      8 C8         29.1295   -6.6372   -2.8230 C.3       12 UNK         0.0378 
      9 C9         29.6225   -5.5157   -3.7430 C.ar      12 UNK        -0.0802 
     10 C10        30.2647   -4.3630   -3.2701 C.ar      12 UNK        -0.0944 
     11 C11        30.7231   -3.3836   -4.1549 C.ar      12 UNK        -0.0787 
     12 C12        30.5839   -3.5813   -5.5299 C.ar      12 UNK        -0.0862 
     13 C13        29.9290   -4.7125   -6.0212 C.ar      12 UNK        -0.0733 
     14 C14        29.4479   -5.6703   -5.1230 C.ar      12 UNK        -0.0832 
     15 C15        29.7615   -4.9172   -7.5201 C.3       12 UNK         0.0240 
     16 S16        28.2011   -4.2068   -8.1355 S.3       12 UNK        -0.2522 
     17 C17        28.6520   -2.4529   -8.3653 C.3       12 UNK        -0.0967 
     18 CA         27.5486   -1.4581   -7.9222 C.3       5 UNK         0.0660 
     19 N          27.1287   -1.6569   -6.5314 N.am      5 UNK        -0.4015 
     20 C          25.9012   -2.0312   -6.1515 C.2       4 UNK         0.4946 
     21 O          24.9702   -2.2492   -6.9282 O.2       4 UNK        -0.5353 
     22 CA         25.6599   -2.1704   -4.6385 C.3       4 UNK         0.0277 
     23 CB         26.1393   -3.5501   -4.1592 C.3       4 UNK        -0.1981 
     24 N          26.2579   -1.1221   -3.7980 N.am      4 UNK        -0.4209 
     25 C          26.1270    0.2039   -3.9657 C.2       3 UNK         0.4942 
     26 O          25.5765    0.7131   -4.9432 O.2       3 UNK        -0.5208 
     27 CA         26.7501    1.1184   -2.8892 C.3       3 UNK         0.0250 
     28 CB         26.0296    2.4813   -2.7733 C.3       3 UNK        -0.1990 
     29 N          26.8951    0.4886   -1.5687 N.am      3 UNK        -0.4232 
     30 C          25.9109    0.1240   -0.7316 C.2       2 UNK         0.4993 
     31 O          24.7096    0.2174   -0.9900 O.2       2 UNK        -0.5286 
     32 CA         26.3721   -0.4484    0.6223 C.3       2 UNK         0.0209 
     33 CB         25.2003   -0.8151    1.5594 C.3       2 UNK        -0.1931 
     34 N          27.2875   -1.5851    0.4605 N.am      2 UNK        -0.4546 
     35 C          27.0352   -2.7582   -0.1378 C.2       1 UNK         0.5154 
     36 O          25.9486   -3.0433   -0.6420 O.2       1 UNK        -0.5181 
     37 C          27.9650    0.0080   -8.1663 C.2       5 UNK         0.5014 
     38 O          28.7908    0.2671   -9.0467 O.2       5 UNK        -0.5248 
     39 N          27.4034    0.9639   -7.4065 N.am      6 UNK        -0.4434 
     40 CA         27.6719    2.3980   -7.5828 C.3       6 UNK         0.0363 
     41 CB         27.1053    3.1955   -6.4026 C.3       6 UNK        -0.1936 
     42 C          27.1488    2.9518   -8.9185 C.2       6 UNK         0.5081 
     43 O          27.7656    3.8586   -9.4748 O.2       6 UNK        -0.5248 
     44 N          26.0752    2.3509   -9.4524 N.am      7 UNK        -0.4718 
     45 CA         25.5341    2.6339  -10.7876 C.3       7 UNK         0.0273 
     46 CB         24.1931    1.9014  -10.9540 C.3       7 UNK        -0.1935 
     47 C          26.4963    2.2633  -11.9343 C.2       7 UNK         0.5018 
     48 O          26.4133    2.8619  -13.0068 O.2       7 UNK        -0.5186 
     49 N          27.4006    1.3071  -11.6797 N.am      8 UNK        -0.4240 
     50 CA         28.4860    0.9059  -12.5771 C.3       8 UNK         0.0235 
     51 CB         28.6475   -0.6229  -12.4935 C.3       8 UNK        -0.2000 
     52 C          29.8142    1.6110  -12.2364 C.2       8 UNK         0.4941 
     53 O          30.8246    1.3082  -12.8717 O.2       8 UNK        -0.5273 
     54 N          29.8053    2.5045  -11.2319 N.am      9 UNK        -0.4262 
     55 CA         30.9498    3.2155  -10.6478 C.3       9 UNK         0.0264 
     56 CB         31.5906    4.1740  -11.6744 C.3       9 UNK        -0.1955 
     57 C          31.9821    2.2885   -9.9714 C.2       9 UNK         0.5031 
     58 O          33.1386    2.6845   -9.8161 O.2       9 UNK        -0.5390 
     59 N          31.5529    1.0873   -9.5584 N.am      10 UNK        -0.4204 
     60 CA         32.3953    0.0679   -8.9250 C.3       10 UNK         0.0237 
     61 CB         32.1181   -1.2868   -9.5988 C.3       10 UNK        -0.1985 
     62 C          32.1953   -0.0089   -7.4002 C.2       10 UNK         0.4970 
     63 O          32.8669   -0.8116   -6.7525 O.2       10 UNK        -0.4914 
     64 N          31.2923    0.8126   -6.8520 N.am      11 UNK        -0.4285 
     65 CA         30.9842    0.9137   -5.4174 C.3       11 UNK         0.1007 
     66 C          30.6650    2.3717   -4.9747 C.2       11 UNK         0.5703 
     67 N          31.0602    3.3892   -5.7322 N.am      11 UNK        -0.7361 
     68 O          30.0517    2.5936   -3.9349 O.2       11 UNK        -0.4986 
     69 C69        29.9083   -0.1275   -4.9940 C.3       12 UNK        -0.0947 
     70 S70        30.1663   -0.7967   -3.3159 S.3       12 UNK        -0.2240 
     71 C71        31.3826   -2.1209   -3.6210 C.3       12 UNK         0.0194 
     72 H72        29.6860   -4.6426    3.4651 H         1 UNK         0.0906 
     73 H73        31.1765   -3.7398    3.1885 H         1 UNK         0.0906 
     74 H74        29.7954   -2.9503    3.9544 H         1 UNK         0.0906 
     75 H75        28.4755   -4.8926    1.6004 H         1 UNK         0.3140 
     76 H76        28.9682   -3.3244   -0.7808 H         1 UNK         0.1085 
     77 H77        26.9804   -5.6044   -0.2865 H         1 UNK         0.0836 
     78 H78        27.3638   -4.9175   -1.8412 H         1 UNK         0.0836 
     79 H79        28.1137   -6.9190   -3.1052 H         1 UNK         0.0731 
     80 H80        29.7500   -7.5162   -3.0025 H         1 UNK         0.0731 
     81 H81        30.4291   -4.2202   -2.2134 H         1 UNK         0.1312 
     82 H82        30.9891   -2.8516   -6.2157 H         1 UNK         0.1406 
     83 H83        28.9509   -6.5526   -5.5039 H         1 UNK         0.1631 
     84 H84        29.7697   -5.9842   -7.7474 H         1 UNK         0.0717 
     85 H85        30.6053   -4.4892   -8.0639 H         1 UNK         0.0717 
     86 H86        29.5816   -2.2379   -7.8414 H         1 UNK         0.0934 
     87 H87        28.8658   -2.3248   -9.4275 H         1 UNK         0.0934 
     88 H88        26.6982   -1.6167   -8.5881 H         1 UNK         0.0739 
     89 H89        27.8291   -1.5194   -5.8186 H         1 UNK         0.3093 
     90 H90        24.5802   -2.1165   -4.4851 H         1 UNK         0.0818 
     91 H91        25.7819   -4.3440   -4.8170 H         1 UNK         0.0819 
     92 H92        27.2280   -3.6162   -4.1335 H         1 UNK         0.0819 
     93 H93        25.7586   -3.7716   -3.1635 H         1 UNK         0.0819 
     94 H94        26.7165   -1.4375   -2.9561 H         1 UNK         0.3041 
     95 H95        27.7648    1.3247   -3.2286 H         1 UNK         0.0784 
     96 H96        26.5077    3.1198   -2.0306 H         1 UNK         0.0793 
     97 H97        26.0446    3.0242   -3.7171 H         1 UNK         0.0793 
     98 H98        24.9823    2.3658   -2.4934 H         1 UNK         0.0793 
     99 H99        27.8485    0.3449   -1.2630 H         1 UNK         0.3024 
    100 H100       26.9408    0.3447    1.1112 H         1 UNK         0.1171 
    101 H101       25.5611   -1.1841    2.5194 H         1 UNK         0.0786 
    102 H102       24.5766    0.0567    1.7613 H         1 UNK         0.0786 
    103 H103       24.5549   -1.5805    1.1272 H         1 UNK         0.0786 
    104 H104       28.2230   -1.4701    0.8446 H         1 UNK         0.2977 
    105 H105       26.7161    0.7112   -6.7022 H         1 UNK         0.3127 
    106 H106       28.7543    2.5381   -7.5848 H         1 UNK         0.0770 
    107 H107       26.0267    3.0664   -6.3057 H         1 UNK         0.0814 
    108 H108       27.2984    4.2626   -6.5217 H         1 UNK         0.0814 
    109 H109       27.5722    2.8885   -5.4676 H         1 UNK         0.0814 
    110 H110       25.6214    1.6219   -8.9207 H         1 UNK         0.2983 
    111 H111       25.3505    3.7088  -10.8538 H         1 UNK         0.0947 
    112 H112       23.7512    2.1134  -11.9287 H         1 UNK         0.0806 
    113 H113       23.4720    2.2159  -10.1993 H         1 UNK         0.0806 
    114 H114       24.3104    0.8195  -10.8782 H         1 UNK         0.0806 
    115 H115       27.4143    0.8898  -10.7585 H         1 UNK         0.3000 
    116 H116       28.2341    1.1674  -13.6071 H         1 UNK         0.0850 
    117 H117       29.3976   -0.9772  -13.2018 H         1 UNK         0.0810 
    118 H118       27.7148   -1.1349  -12.7303 H         1 UNK         0.0810 
    119 H119       28.9638   -0.9420  -11.5002 H         1 UNK         0.0810 
    120 H120       28.9165    2.7129  -10.7911 H         1 UNK         0.3040 
    121 H121       30.5379    3.8297   -9.8458 H         1 UNK         0.0766 
    122 H122       32.0974    3.6328  -12.4737 H         1 UNK         0.0812 
    123 H123       32.3317    4.8183  -11.1999 H         1 UNK         0.0812 
    124 H124       30.8437    4.8243  -12.1295 H         1 UNK         0.0812 
    125 H125       30.5722    0.8460   -9.6796 H         1 UNK         0.3205 
    126 H126       33.4503    0.3011   -9.0829 H         1 UNK         0.0754 
    127 H127       32.6829   -2.0924   -9.1274 H         1 UNK         0.0769 
    128 H128       32.4055   -1.2645  -10.6502 H         1 UNK         0.0769 
    129 H129       31.0643   -1.5512   -9.5541 H         1 UNK         0.0769 
    130 H130       30.7796    1.4356   -7.4567 H         1 UNK         0.2981 
    131 H131       31.9071    0.6834   -4.8824 H         1 UNK         0.0541 
    132 H132       31.6452    3.2468   -6.5388 H         1 UNK         0.3459 
    133 H133       30.8479    4.3264   -5.4284 H         1 UNK         0.3459 
    134 H134       29.8903   -0.9631   -5.6887 H         1 UNK         0.0612 
    135 H135       28.9114    0.3077   -5.0504 H         1 UNK         0.0612 
    136 H136       31.8961   -2.3418   -2.6841 H         1 UNK         0.0624 
    137 H137       32.1511   -1.7686   -4.3098 H         1 UNK         0.0624 
@<TRIPOS>BOND
     1    1    2 1    
     2    1   72 1    
     3    1   73 1    
     4    1   74 1    
     5    2    3 2    
     6    2    4 am   BACKBONE|DICT|INTERRES
     7    4    5 1    
     8    4   75 1    
     9    5    6 1    
    10    5   35 1    
    11    5   76 1    
    12    6    7 1    
    13    6   77 1    
    14    6   78 1    
    15    7    8 1    
    16    8    9 1    
    17    8   79 1    
    18    8   80 1    
    19    9   10 ar   
    20    9   14 ar   
    21   10   11 ar   
    22   10   81 1    
    23   11   12 ar   
    24   11   71 1    
    25   12   13 ar   
    26   12   82 1    
    27   13   14 ar   
    28   13   15 1    
    29   14   83 1    
    30   15   16 1    
    31   15   84 1    
    32   15   85 1    
    33   16   17 1    
    34   17   18 1    
    35   17   86 1    
    36   17   87 1    
    37   18   19 1    
    38   18   37 1    
    39   18   88 1    
    40   19   20 am   BACKBONE|DICT|INTERRES
    41   19   89 1    
    42   20   21 2    
    43   20   22 1    
    44   22   23 1    
    45   22   24 1    
    46   22   90 1    
    47   23   91 1    
    48   23   92 1    
    49   23   93 1    
    50   24   25 am   BACKBONE|DICT|INTERRES
    51   24   94 1    
    52   25   26 2    
    53   25   27 1    
    54   27   28 1    
    55   27   29 1    
    56   27   95 1    
    57   28   96 1    
    58   28   97 1    
    59   28   98 1    
    60   29   30 am   BACKBONE|DICT|INTERRES
    61   29   99 1    
    62   30   31 2    
    63   30   32 1    
    64   32   33 1    
    65   32   34 1    
    66   32  100 1    
    67   33  101 1    
    68   33  102 1    
    69   33  103 1    
    70   34   35 am   BACKBONE|DICT|INTERRES
    71   34  104 1    
    72   35   36 2    
    73   37   38 2    
    74   37   39 am   BACKBONE|DICT|INTERRES
    75   39   40 1    
    76   39  105 1    
    77   40   41 1    
    78   40   42 1    
    79   40  106 1    
    80   41  107 1    
    81   41  108 1    
    82   41  109 1    
    83   42   43 2    
    84   42   44 am   BACKBONE|DICT|INTERRES
    85   44   45 1    
    86   44  110 1    
    87   45   46 1    
    88   45   47 1    
    89   45  111 1    
    90   46  112 1    
    91   46  113 1    
    92   46  114 1    
    93   47   48 2    
    94   47   49 am   BACKBONE|DICT|INTERRES
    95   49   50 1    
    96   49  115 1    
    97   50   51 1    
    98   50   52 1    
    99   50  116 1    
   100   51  117 1    
   101   51  118 1    
   102   51  119 1    
   103   52   53 2    
   104   52   54 am   BACKBONE|DICT|INTERRES
   105   54   55 1    
   106   54  120 1    
   107   55   56 1    
   108   55   57 1    
   109   55  121 1    
   110   56  122 1    
   111   56  123 1    
   112   56  124 1    
   113   57   58 2    
   114   57   59 am   BACKBONE|DICT|INTERRES
   115   59   60 1    
   116   59  125 1    
   117   60   61 1    
   118   60   62 1    
   119   60  126 1    
   120   61  127 1    
   121   61  128 1    
   122   61  129 1    
   123   62   63 2    
   124   62   64 am   BACKBONE|DICT|INTERRES
   125   64   65 1    
   126   64  130 1    
   127   65   66 1    
   128   65   69 1    
   129   65  131 1    
   130   66   67 am   BACKBONE|DICT|INTERRES
   131   66   68 2    
   132   67  132 1    
   133   67  133 1    
   134   69   70 1    
   135   69  134 1    
   136   69  135 1    
   137   70   71 1    
   138   71  136 1    
   139   71  137 1    
@<TRIPOS>SUBSTRUCTURE
     1 UNK         1 GROUP             0       ****    0 ROOT    
