@<TRIPOS>MOLECULE
3R137
137   139    1
SMALL
USER_CHARGES


@<TRIPOS>ATOM
      1 CA         26.5714   -1.8252    0.3853 C.3       0 UNK        -0.2020 
      2 C          26.2700   -0.7756   -0.6730 C.2       0 UNK         0.4855 
      3 O          25.1958   -0.1729   -0.6462 O.2       0 UNK        -0.5197 
      4 N          27.2052   -0.5578   -1.6090 N.am      1 UNK        -0.4892 
      5 CA         27.0863    0.3686   -2.7436 C.3       1 UNK         0.0835 
      6 C6         28.3428    0.3442   -3.6455 C.3       12 UNK        -0.0855 
      7 S7         29.8617    0.8189   -2.7579 S.3       12 UNK        -0.2931 
      8 C8         31.0475    0.8950   -4.1380 C.3       12 UNK         0.0378 
      9 C9         31.2948   -0.4765   -4.7502 C.ar      12 UNK        -0.0802 
     10 C10        32.1398   -1.3881   -4.1129 C.ar      12 UNK        -0.0944 
     11 C11        32.3811   -2.6488   -4.6698 C.ar      12 UNK        -0.0787 
     12 C12        31.7529   -2.9978   -5.8704 C.ar      12 UNK        -0.0862 
     13 C13        30.8931   -2.0989   -6.5110 C.ar      12 UNK        -0.0733 
     14 C14        30.6785   -0.8355   -5.9516 C.ar      12 UNK        -0.0832 
     15 C15        30.1855   -2.4897   -7.8028 C.3       12 UNK         0.0240 
     16 S16        29.0199   -3.8759   -7.5806 S.3       12 UNK        -0.2522 
     17 C17        27.9391   -3.2679   -6.2406 C.3       12 UNK        -0.0967 
     18 CA         26.4205   -3.3878   -6.5524 C.3       5 UNK         0.0660 
     19 N          25.6601   -3.5216   -5.3148 N.am      5 UNK        -0.4015 
     20 C          25.3937   -4.6572   -4.6670 C.2       4 UNK         0.4946 
     21 O          25.6727   -5.7730   -5.1088 O.2       4 UNK        -0.5353 
     22 CA         24.7376   -4.5519   -3.2801 C.3       4 UNK         0.0277 
     23 CB         25.8081   -4.6795   -2.1818 C.3       4 UNK        -0.1981 
     24 N          23.9952   -3.3025   -3.0645 N.am      4 UNK        -0.4209 
     25 C          22.7275   -3.2445   -2.6278 C.2       3 UNK         0.4942 
     26 O          22.0189   -4.2389   -2.4630 O.2       3 UNK        -0.5208 
     27 CA         22.1377   -1.8662   -2.2705 C.3       3 UNK         0.0250 
     28 CB         22.0510   -1.7056   -0.7433 C.3       3 UNK        -0.1990 
     29 N          22.8938   -0.7418   -2.8234 N.am      3 UNK        -0.4232 
     30 C          22.7581   -0.2860   -4.0776 C.2       2 UNK         0.4993 
     31 O          21.9312   -0.7302   -4.8746 O.2       2 UNK        -0.5286 
     32 CA         23.6887    0.8602   -4.5284 C.3       2 UNK         0.0209 
     33 CB         22.9318    2.1977   -4.4705 C.3       2 UNK        -0.1931 
     34 N          24.9371    0.9966   -3.7657 N.am      2 UNK        -0.4546 
     35 C          25.8455    0.0290   -3.5871 C.2       1 UNK         0.5154 
     36 O          25.7143   -1.1187   -4.0126 O.2       1 UNK        -0.5181 
     37 C          25.8646   -2.1778   -7.3306 C.2       5 UNK         0.5014 
     38 O          24.8005   -1.6528   -6.9899 O.2       5 UNK        -0.5248 
     39 N          26.5970   -1.7399   -8.3612 N.am      6 UNK        -0.4434 
     40 CA         26.3675   -0.4656   -9.0431 C.3       6 UNK         0.0363 
     41 CB         27.1897   -0.4248  -10.3403 C.3       6 UNK        -0.1936 
     42 C          26.7281    0.7120   -8.1195 C.2       6 UNK         0.5081 
     43 O          27.7252    0.6366   -7.3986 O.2       6 UNK        -0.5248 
     44 N          25.9086    1.7699   -8.1559 N.am      7 UNK        -0.4718 
     45 CA         26.0366    2.9440   -7.2873 C.3       7 UNK         0.0273 
     46 CB         24.7444    3.7734   -7.3695 C.3       7 UNK        -0.1935 
     47 C          27.2534    3.8223   -7.6226 C.2       7 UNK         0.5018 
     48 O          27.9139    4.3182   -6.7096 O.2       7 UNK        -0.5186 
     49 N          27.5179    3.9998   -8.9224 N.am      8 UNK        -0.4240 
     50 CA         28.6227    4.7930   -9.4586 C.3       8 UNK         0.0235 
     51 CB         28.0791    5.7306  -10.5540 C.3       8 UNK        -0.2000 
     52 C          29.7026    3.8365   -9.9799 C.2       8 UNK         0.4941 
     53 O          29.8727    3.6951  -11.1927 O.2       8 UNK        -0.5273 
     54 N          30.3804    3.1590   -9.0497 N.am      9 UNK        -0.4262 
     55 CA         31.3965    2.1447   -9.3103 C.3       9 UNK         0.0264 
     56 CB         30.7139    0.8252   -9.7203 C.3       9 UNK        -0.1955 
     57 C          32.2637    1.9629   -8.0584 C.2       9 UNK         0.5031 
     58 O          31.9918    2.5767   -7.0231 O.2       9 UNK        -0.5390 
     59 N          33.2813    1.1088   -8.1819 N.am      10 UNK        -0.4204 
     60 CA         34.1595    0.6486   -7.1124 C.3       10 UNK         0.0237 
     61 CB         35.4333    1.5122   -7.0825 C.3       10 UNK        -0.1985 
     62 C          34.4818   -0.8291   -7.3735 C.2       10 UNK         0.4970 
     63 O          34.1865   -1.3335   -8.4619 O.2       10 UNK        -0.4914 
     64 N          35.0703   -1.4923   -6.3725 N.am      11 UNK        -0.4285 
     65 CA         35.4167   -2.9209   -6.3994 C.3       11 UNK         0.1007 
     66 C          36.4293   -3.2912   -7.5192 C.2       11 UNK         0.5703 
     67 N          36.2944   -4.4682   -8.1158 N.am      11 UNK        -0.7361 
     68 O          37.3599   -2.5435   -7.8159 O.2       11 UNK        -0.4986 
     69 C69        35.9370   -3.4183   -5.0241 C.3       12 UNK        -0.0947 
     70 S70        34.9317   -2.9500   -3.5729 S.3       12 UNK        -0.2240 
     71 C71        33.2876   -3.6436   -3.9524 C.3       12 UNK         0.0194 
     72 H72        27.5243   -2.3232    0.2071 H         1 UNK         0.0906 
     73 H73        26.6072   -1.3631    1.3715 H         1 UNK         0.0906 
     74 H74        25.7889   -2.5835    0.3927 H         1 UNK         0.0906 
     75 H75        28.0724   -1.0744   -1.5742 H         1 UNK         0.3140 
     76 H76        26.9702    1.3743   -2.3341 H         1 UNK         0.1085 
     77 H77        28.2184    1.0200   -4.4951 H         1 UNK         0.0836 
     78 H78        28.4874   -0.6530   -4.0660 H         1 UNK         0.0836 
     79 H79        31.9907    1.3072   -3.7765 H         1 UNK         0.0731 
     80 H80        30.6790    1.5941   -4.8903 H         1 UNK         0.0731 
     81 H81        32.6089   -1.1157   -3.1772 H         1 UNK         0.1312 
     82 H82        31.9166   -3.9754   -6.3026 H         1 UNK         0.1406 
     83 H83        30.0174   -0.1327   -6.4410 H         1 UNK         0.1631 
     84 H84        30.9315   -2.7654   -8.5496 H         1 UNK         0.0717 
     85 H85        29.6372   -1.6427   -8.2135 H         1 UNK         0.0717 
     86 H86        28.1929   -3.8678   -5.3648 H         1 UNK         0.0934 
     87 H87        28.1943   -2.2435   -5.9638 H         1 UNK         0.0934 
     88 H88        26.2377   -4.2715   -7.1675 H         1 UNK         0.0739 
     89 H89        25.4118   -2.6253   -4.8986 H         1 UNK         0.3093 
     90 H90        24.0681   -5.4105   -3.1978 H         1 UNK         0.0818 
     91 H91        26.3836   -5.5989   -2.2988 H         1 UNK         0.0819 
     92 H92        26.5124   -3.8468   -2.2085 H         1 UNK         0.0819 
     93 H93        25.3562   -4.7059   -1.1902 H         1 UNK         0.0819 
     94 H94        24.5036   -2.4359   -3.2127 H         1 UNK         0.3041 
     95 H95        21.1206   -1.8356   -2.6674 H         1 UNK         0.0784 
     96 H96        21.4328   -2.4890   -0.3027 H         1 UNK         0.0793 
     97 H97        23.0334   -1.7656   -0.2736 H         1 UNK         0.0793 
     98 H98        21.6049   -0.7497   -0.4682 H         1 UNK         0.0793 
     99 H99        23.6002   -0.3290   -2.2244 H         1 UNK         0.3024 
    100 H100       23.9655    0.6562   -5.5658 H         1 UNK         0.1171 
    101 H101       22.5785    2.4151   -3.4616 H         1 UNK         0.0786 
    102 H102       22.0586    2.1801   -5.1243 H         1 UNK         0.0786 
    103 H103       23.5581    3.0307   -4.7874 H         1 UNK         0.0786 
    104 H104       25.1010    1.8979   -3.3403 H         1 UNK         0.2977 
    105 H105       27.4651   -2.2171   -8.5600 H         1 UNK         0.3127 
    106 H106       25.3087   -0.3991   -9.3032 H         1 UNK         0.0770 
    107 H107       28.2483   -0.5991  -10.1540 H         1 UNK         0.0814 
    108 H108       27.0982    0.5428  -10.8357 H         1 UNK         0.0814 
    109 H109       26.8487   -1.1826  -11.0459 H         1 UNK         0.0814 
    110 H110       25.1132    1.7499   -8.7786 H         1 UNK         0.2983 
    111 H111       26.1543    2.5906   -6.2601 H         1 UNK         0.0947 
    112 H112       23.8660    3.1698   -7.1429 H         1 UNK         0.0806 
    113 H113       24.6008    4.2045   -8.3612 H         1 UNK         0.0806 
    114 H114       24.7661    4.5989   -6.6567 H         1 UNK         0.0806 
    115 H115       26.9474    3.5098   -9.5964 H         1 UNK         0.3000 
    116 H116       29.0729    5.4129   -8.6799 H         1 UNK         0.0850 
    117 H117       28.8814    6.3287  -10.9881 H         1 UNK         0.0810 
    118 H118       27.3414    6.4237  -10.1493 H         1 UNK         0.0810 
    119 H119       27.6068    5.1777  -11.3671 H         1 UNK         0.0810 
    120 H120       30.2232    3.3466   -8.0656 H         1 UNK         0.3040 
    121 H121       32.0469    2.4885  -10.1175 H         1 UNK         0.0766 
    122 H122       30.0180    0.4977   -8.9493 H         1 UNK         0.0812 
    123 H123       30.1538    0.9404  -10.6482 H         1 UNK         0.0812 
    124 H124       31.4332    0.0217   -9.8815 H         1 UNK         0.0812 
    125 H125       33.3884    0.5836   -9.0414 H         1 UNK         0.3205 
    126 H126       33.6422    0.7186   -6.1530 H         1 UNK         0.0754 
    127 H127       36.1019    1.2039   -6.2780 H         1 UNK         0.0769 
    128 H128       35.1933    2.5627   -6.9170 H         1 UNK         0.0769 
    129 H129       35.9904    1.4397   -8.0176 H         1 UNK         0.0769 
    130 H130       35.2836   -1.0081   -5.5139 H         1 UNK         0.2981 
    131 H131       34.4908   -3.4545   -6.6180 H         1 UNK         0.0541 
    132 H132       35.5447   -5.0960   -7.8712 H         1 UNK         0.3459 
    133 H133       36.9529   -4.7312   -8.8323 H         1 UNK         0.3459 
    134 H134       36.9438   -3.0360   -4.8447 H         1 UNK         0.0612 
    135 H135       36.0265   -4.5062   -5.0288 H         1 UNK         0.0612 
    136 H136       32.8088   -3.9269   -3.0143 H         1 UNK         0.0624 
    137 H137       33.4036   -4.5635   -4.5274 H         1 UNK         0.0624 
@<TRIPOS>BOND
     1    1    2 1    
     2    1   72 1    
     3    1   73 1    
     4    1   74 1    
     5    2    3 2    
     6    2    4 am   BACKBONE|DICT|INTERRES
     7    4    5 1    
     8    4   75 1    
     9    5    6 1    
    10    5   35 1    
    11    5   76 1    
    12    6    7 1    
    13    6   77 1    
    14    6   78 1    
    15    7    8 1    
    16    8    9 1    
    17    8   79 1    
    18    8   80 1    
    19    9   10 ar   
    20    9   14 ar   
    21   10   11 ar   
    22   10   81 1    
    23   11   12 ar   
    24   11   71 1    
    25   12   13 ar   
    26   12   82 1    
    27   13   14 ar   
    28   13   15 1    
    29   14   83 1    
    30   15   16 1    
    31   15   84 1    
    32   15   85 1    
    33   16   17 1    
    34   17   18 1    
    35   17   86 1    
    36   17   87 1    
    37   18   19 1    
    38   18   37 1    
    39   18   88 1    
    40   19   20 am   BACKBONE|DICT|INTERRES
    41   19   89 1    
    42   20   21 2    
    43   20   22 1    
    44   22   23 1    
    45   22   24 1    
    46   22   90 1    
    47   23   91 1    
    48   23   92 1    
    49   23   93 1    
    50   24   25 am   BACKBONE|DICT|INTERRES
    51   24   94 1    
    52   25   26 2    
    53   25   27 1    
    54   27   28 1    
    55   27   29 1    
    56   27   95 1    
    57   28   96 1    
    58   28   97 1    
    59   28   98 1    
    60   29   30 am   BACKBONE|DICT|INTERRES
    61   29   99 1    
    62   30   31 2    
    63   30   32 1    
    64   32   33 1    
    65   32   34 1    
    66   32  100 1    
    67   33  101 1    
    68   33  102 1    
    69   33  103 1    
    70   34   35 am   BACKBONE|DICT|INTERRES
    71   34  104 1    
    72   35   36 2    
    73   37   38 2    
    74   37   39 am   BACKBONE|DICT|INTERRES
    75   39   40 1    
    76   39  105 1    
    77   40   41 1    
    78   40   42 1    
    79   40  106 1    
    80   41  107 1    
    81   41  108 1    
    82   41  109 1    
    83   42   43 2    
    84   42   44 am   BACKBONE|DICT|INTERRES
    85   44   45 1    
    86   44  110 1    
    87   45   46 1    
    88   45   47 1    
    89   45  111 1    
    90   46  112 1    
    91   46  113 1    
    92   46  114 1    
    93   47   48 2    
    94   47   49 am   BACKBONE|DICT|INTERRES
    95   49   50 1    
    96   49  115 1    
    97   50   51 1    
    98   50   52 1    
    99   50  116 1    
   100   51  117 1    
   101   51  118 1    
   102   51  119 1    
   103   52   53 2    
   104   52   54 am   BACKBONE|DICT|INTERRES
   105   54   55 1    
   106   54  120 1    
   107   55   56 1    
   108   55   57 1    
   109   55  121 1    
   110   56  122 1    
   111   56  123 1    
   112   56  124 1    
   113   57   58 2    
   114   57   59 am   BACKBONE|DICT|INTERRES
   115   59   60 1    
   116   59  125 1    
   117   60   61 1    
   118   60   62 1    
   119   60  126 1    
   120   61  127 1    
   121   61  128 1    
   122   61  129 1    
   123   62   63 2    
   124   62   64 am   BACKBONE|DICT|INTERRES
   125   64   65 1    
   126   64  130 1    
   127   65   66 1    
   128   65   69 1    
   129   65  131 1    
   130   66   67 am   BACKBONE|DICT|INTERRES
   131   66   68 2    
   132   67  132 1    
   133   67  133 1    
   134   69   70 1    
   135   69  134 1    
   136   69  135 1    
   137   70   71 1    
   138   71  136 1    
   139   71  137 1    
@<TRIPOS>SUBSTRUCTURE
     1 UNK         1 GROUP             0       ****    0 ROOT    
