@<TRIPOS>MOLECULE
3R137
137   139    1
SMALL
USER_CHARGES


@<TRIPOS>ATOM
      1 CA         25.5901   -5.9631   -5.0395 C.3       0 UNK        -0.2020 
      2 C          25.6152   -5.2311   -3.7069 C.2       0 UNK         0.4855 
      3 O          24.5711   -4.7799   -3.2364 O.2       0 UNK        -0.5197 
      4 N          26.7956   -5.1039   -3.0884 N.am      1 UNK        -0.4892 
      5 CA         26.9896   -4.3947   -1.8208 C.3       1 UNK         0.0835 
      6 C6         28.3475   -4.7423   -1.1584 C.3       12 UNK        -0.0855 
      7 S7         29.8114   -4.3873   -2.1935 S.3       12 UNK        -0.2931 
      8 C8         30.4582   -2.9204   -1.3367 C.3       12 UNK         0.0378 
      9 C9         31.3644   -2.1077   -2.2434 C.ar      12 UNK        -0.0802 
     10 C10        32.7406   -2.3453   -2.2717 C.ar      12 UNK        -0.0944 
     11 C11        33.5723   -1.5825   -3.0969 C.ar      12 UNK        -0.0787 
     12 C12        33.0232   -0.5557   -3.8704 C.ar      12 UNK        -0.0862 
     13 C13        31.6446   -0.3202   -3.8605 C.ar      12 UNK        -0.0733 
     14 C14        30.8196   -1.1094   -3.0544 C.ar      12 UNK        -0.0832 
     15 C15        31.0473    0.7481   -4.7622 C.3       12 UNK         0.0240 
     16 S16        30.3424    2.1559   -3.8329 S.3       12 UNK        -0.2522 
     17 C17        28.5668    1.7370   -3.7122 C.3       12 UNK        -0.0967 
     18 CA         27.9051    1.5397   -5.1049 C.3       5 UNK         0.0660 
     19 N          27.3746    0.1856   -5.2824 N.am      5 UNK        -0.4015 
     20 C          27.1569   -0.3790   -6.4777 C.2       4 UNK         0.4946 
     21 O          27.4177    0.1669   -7.5487 O.2       4 UNK        -0.5353 
     22 CA         26.4958   -1.7649   -6.4817 C.3       4 UNK         0.0277 
     23 CB         27.5439   -2.8740   -6.2924 C.3       4 UNK        -0.1981 
     24 N          25.4491   -1.8690   -5.4612 N.am      4 UNK        -0.4209 
     25 C          24.2791   -1.2140   -5.5299 C.2       3 UNK         0.4942 
     26 O          23.9471   -0.5174   -6.4879 O.2       3 UNK        -0.5208 
     27 CA         23.3366   -1.3042   -4.3174 C.3       3 UNK         0.0250 
     28 CB         22.3276   -2.4486   -4.4978 C.3       3 UNK        -0.1990 
     29 N          24.0455   -1.4517   -3.0436 N.am      3 UNK        -0.4232 
     30 C          24.8289   -0.5040   -2.5044 C.2       2 UNK         0.4993 
     31 O          25.0236    0.5946   -3.0242 O.2       2 UNK        -0.5286 
     32 CA         25.5727   -0.8576   -1.2033 C.3       2 UNK         0.0209 
     33 CB         24.7221   -0.4862    0.0214 C.3       2 UNK        -0.1931 
     34 N          25.9705   -2.2680   -1.1181 N.am      2 UNK        -0.4546 
     35 C          26.7692   -2.8769   -2.0055 C.2       1 UNK         0.5154 
     36 O          27.2812   -2.2880   -2.9621 O.2       1 UNK        -0.5181 
     37 C          26.8652    2.6224   -5.4542 C.2       5 UNK         0.5014 
     38 O          27.2422    3.6386   -6.0376 O.2       5 UNK        -0.5248 
     39 N          25.5761    2.3737   -5.1760 N.am      6 UNK        -0.4434 
     40 CA         24.4582    3.2059   -5.6400 C.3       6 UNK         0.0363 
     41 CB         23.1479    2.7306   -4.9944 C.3       6 UNK        -0.1936 
     42 C          24.3306    3.2300   -7.1763 C.2       6 UNK         0.5081 
     43 O          24.0297    4.2803   -7.7430 O.2       6 UNK        -0.5248 
     44 N          24.6087    2.0892   -7.8237 N.am      7 UNK        -0.4718 
     45 CA         24.7134    1.9460   -9.2803 C.3       7 UNK         0.0273 
     46 CB         24.5109    0.4663   -9.6484 C.3       7 UNK        -0.1935 
     47 C          26.0421    2.4738   -9.8637 C.2       7 UNK         0.5018 
     48 O          26.1860    2.4915  -11.0869 O.2       7 UNK        -0.5186 
     49 N          26.9784    2.8864   -8.9958 N.am      8 UNK        -0.4240 
     50 CA         28.3163    3.4114   -9.2864 C.3       8 UNK         0.0235 
     51 CB         28.2294    4.7545  -10.0433 C.3       8 UNK        -0.2000 
     52 C          29.2533    2.3922   -9.9642 C.2       8 UNK         0.4941 
     53 O          30.0809    2.7829  -10.7910 O.2       8 UNK        -0.5273 
     54 N          29.1354    1.1085   -9.5959 N.am      9 UNK        -0.4262 
     55 CA         30.0577    0.0527  -10.0150 C.3       9 UNK         0.0264 
     56 CB         29.4011   -1.3190   -9.7987 C.3       9 UNK        -0.1955 
     57 C          31.3683    0.1558   -9.2200 C.2       9 UNK         0.5031 
     58 O          31.3300    0.3101   -7.9967 O.2       9 UNK        -0.5390 
     59 N          32.5060    0.0455   -9.9147 N.am      10 UNK        -0.4204 
     60 CA         33.8514    0.1804   -9.3497 C.3       10 UNK         0.0237 
     61 CB         34.8217    0.5912  -10.4742 C.3       10 UNK        -0.1985 
     62 C          34.3073   -1.0918   -8.6081 C.2       10 UNK         0.4970 
     63 O          35.2651   -1.7391   -9.0350 O.2       10 UNK        -0.4914 
     64 N          33.6078   -1.4275   -7.5157 N.am      11 UNK        -0.4285 
     65 CA         33.8823   -2.5817   -6.6386 C.3       11 UNK         0.1007 
     66 C          33.6182   -3.9713   -7.3016 C.2       11 UNK         0.5703 
     67 N          32.8266   -4.0476   -8.3658 N.am      11 UNK        -0.7361 
     68 O          34.1097   -4.9995   -6.8429 O.2       11 UNK        -0.4986 
     69 C69        35.2759   -2.4550   -5.9470 C.3       12 UNK        -0.0947 
     70 S70        35.3892   -3.2662   -4.3143 S.3       12 UNK        -0.2240 
     71 C71        35.0593   -1.8898   -3.1679 C.3       12 UNK         0.0194 
     72 H72        25.0016   -6.8760   -4.9527 H         1 UNK         0.0906 
     73 H73        25.1321   -5.3357   -5.8037 H         1 UNK         0.0906 
     74 H74        26.5909   -6.2344   -5.3749 H         1 UNK         0.0906 
     75 H75        27.6412   -5.4456   -3.5238 H         1 UNK         0.3140 
     76 H76        26.2122   -4.7547   -1.1425 H         1 UNK         0.1085 
     77 H77        28.3667   -5.8084   -0.9263 H         1 UNK         0.0836 
     78 H78        28.4394   -4.2415   -0.1927 H         1 UNK         0.0836 
     79 H79        30.9946   -3.2320   -0.4391 H         1 UNK         0.0731 
     80 H80        29.6321   -2.2925   -0.9988 H         1 UNK         0.0731 
     81 H81        33.1626   -3.1354   -1.6653 H         1 UNK         0.1312 
     82 H82        33.6668    0.0356   -4.5075 H         1 UNK         0.1406 
     83 H83        29.7504   -0.9556   -3.0572 H         1 UNK         0.1631 
     84 H84        30.3077    0.2780   -5.4089 H         1 UNK         0.0717 
     85 H85        31.8120    1.1445   -5.4317 H         1 UNK         0.0717 
     86 H86        28.4564    0.8526   -3.0851 H         1 UNK         0.0934 
     87 H87        28.0821    2.5345   -3.1449 H         1 UNK         0.0934 
     88 H88        28.6682    1.6714   -5.8745 H         1 UNK         0.0739 
     89 H89        27.1252   -0.3305   -4.4492 H         1 UNK         0.3093 
     90 H90        26.0307   -1.9063   -7.4598 H         1 UNK         0.0818 
     91 H91        28.0697   -2.7897   -5.3416 H         1 UNK         0.0819 
     92 H92        27.0892   -3.8618   -6.3403 H         1 UNK         0.0819 
     93 H93        28.2985   -2.8355   -7.0774 H         1 UNK         0.0819 
     94 H94        25.6789   -2.3765   -4.6166 H         1 UNK         0.3041 
     95 H95        22.7730   -0.3708   -4.2693 H         1 UNK         0.0784 
     96 H96        21.7295   -2.2978   -5.3976 H         1 UNK         0.0793 
     97 H97        22.8208   -3.4152   -4.5980 H         1 UNK         0.0793 
     98 H98        21.6365   -2.5079   -3.6568 H         1 UNK         0.0793 
     99 H99        23.9707   -2.3472   -2.5795 H         1 UNK         0.3024 
    100 H100       26.4844   -0.2559   -1.1826 H         1 UNK         0.1171 
    101 H101       25.2738   -0.6381    0.9493 H         1 UNK         0.0786 
    102 H102       24.4308    0.5649   -0.0109 H         1 UNK         0.0786 
    103 H103       23.8064   -1.0765    0.0731 H         1 UNK         0.0786 
    104 H104       25.5753   -2.8051   -0.3591 H         1 UNK         0.2977 
    105 H105       25.3430    1.5701   -4.5962 H         1 UNK         0.3127 
    106 H106       24.6492    4.2282   -5.3068 H         1 UNK         0.0770 
    107 H107       22.8690    1.7346   -5.3366 H         1 UNK         0.0814 
    108 H108       22.3259    3.4012   -5.2482 H         1 UNK         0.0814 
    109 H109       23.2236    2.7056   -3.9071 H         1 UNK         0.0814 
    110 H110       24.7669    1.2483   -7.2782 H         1 UNK         0.2983 
    111 H111       23.9102    2.5238   -9.7424 H         1 UNK         0.0947 
    112 H112       24.5207    0.3250  -10.7299 H         1 UNK         0.0806 
    113 H113       23.5542    0.0934   -9.2821 H         1 UNK         0.0806 
    114 H114       25.2969   -0.1633   -9.2306 H         1 UNK         0.0806 
    115 H115       26.7546    2.8209   -8.0108 H         1 UNK         0.3000 
    116 H116       28.7689    3.6179   -8.3156 H         1 UNK         0.0850 
    117 H117       29.2115    5.2216  -10.1258 H         1 UNK         0.0810 
    118 H118       27.5799    5.4598   -9.5248 H         1 UNK         0.0810 
    119 H119       27.8459    4.6252  -11.0558 H         1 UNK         0.0810 
    120 H120       28.4607    0.8566   -8.8738 H         1 UNK         0.3040 
    121 H121       30.2646    0.1712  -11.0809 H         1 UNK         0.0766 
    122 H122       30.0344   -2.1211  -10.1791 H         1 UNK         0.0812 
    123 H123       29.2282   -1.5136   -8.7409 H         1 UNK         0.0812 
    124 H124       28.4421   -1.3873  -10.3127 H         1 UNK         0.0812 
    125 H125       32.4530   -0.1169  -10.9104 H         1 UNK         0.3205 
    126 H126       33.8418    0.9902   -8.6165 H         1 UNK         0.0754 
    127 H127       35.8318    0.7327  -10.0870 H         1 UNK         0.0769 
    128 H128       34.5199    1.5326  -10.9339 H         1 UNK         0.0769 
    129 H129       34.8760   -0.1638  -11.2598 H         1 UNK         0.0769 
    130 H130       32.7906   -0.8678   -7.2916 H         1 UNK         0.2981 
    131 H131       33.1221   -2.5142   -5.8612 H         1 UNK         0.0541 
    132 H132       32.4131   -3.2172   -8.7555 H         1 UNK         0.3459 
    133 H133       32.6533   -4.9467   -8.7865 H         1 UNK         0.3459 
    134 H134       36.0588   -2.8625   -6.5887 H         1 UNK         0.0612 
    135 H135       35.5343   -1.4041   -5.8101 H         1 UNK         0.0612 
    136 H136       35.4215   -2.1661   -2.1765 H         1 UNK         0.0624 
    137 H137       35.6289   -1.0079   -3.4646 H         1 UNK         0.0624 
@<TRIPOS>BOND
     1    1    2 1    
     2    1   72 1    
     3    1   73 1    
     4    1   74 1    
     5    2    3 2    
     6    2    4 am   BACKBONE|DICT|INTERRES
     7    4    5 1    
     8    4   75 1    
     9    5    6 1    
    10    5   35 1    
    11    5   76 1    
    12    6    7 1    
    13    6   77 1    
    14    6   78 1    
    15    7    8 1    
    16    8    9 1    
    17    8   79 1    
    18    8   80 1    
    19    9   10 ar   
    20    9   14 ar   
    21   10   11 ar   
    22   10   81 1    
    23   11   12 ar   
    24   11   71 1    
    25   12   13 ar   
    26   12   82 1    
    27   13   14 ar   
    28   13   15 1    
    29   14   83 1    
    30   15   16 1    
    31   15   84 1    
    32   15   85 1    
    33   16   17 1    
    34   17   18 1    
    35   17   86 1    
    36   17   87 1    
    37   18   19 1    
    38   18   37 1    
    39   18   88 1    
    40   19   20 am   BACKBONE|DICT|INTERRES
    41   19   89 1    
    42   20   21 2    
    43   20   22 1    
    44   22   23 1    
    45   22   24 1    
    46   22   90 1    
    47   23   91 1    
    48   23   92 1    
    49   23   93 1    
    50   24   25 am   BACKBONE|DICT|INTERRES
    51   24   94 1    
    52   25   26 2    
    53   25   27 1    
    54   27   28 1    
    55   27   29 1    
    56   27   95 1    
    57   28   96 1    
    58   28   97 1    
    59   28   98 1    
    60   29   30 am   BACKBONE|DICT|INTERRES
    61   29   99 1    
    62   30   31 2    
    63   30   32 1    
    64   32   33 1    
    65   32   34 1    
    66   32  100 1    
    67   33  101 1    
    68   33  102 1    
    69   33  103 1    
    70   34   35 am   BACKBONE|DICT|INTERRES
    71   34  104 1    
    72   35   36 2    
    73   37   38 2    
    74   37   39 am   BACKBONE|DICT|INTERRES
    75   39   40 1    
    76   39  105 1    
    77   40   41 1    
    78   40   42 1    
    79   40  106 1    
    80   41  107 1    
    81   41  108 1    
    82   41  109 1    
    83   42   43 2    
    84   42   44 am   BACKBONE|DICT|INTERRES
    85   44   45 1    
    86   44  110 1    
    87   45   46 1    
    88   45   47 1    
    89   45  111 1    
    90   46  112 1    
    91   46  113 1    
    92   46  114 1    
    93   47   48 2    
    94   47   49 am   BACKBONE|DICT|INTERRES
    95   49   50 1    
    96   49  115 1    
    97   50   51 1    
    98   50   52 1    
    99   50  116 1    
   100   51  117 1    
   101   51  118 1    
   102   51  119 1    
   103   52   53 2    
   104   52   54 am   BACKBONE|DICT|INTERRES
   105   54   55 1    
   106   54  120 1    
   107   55   56 1    
   108   55   57 1    
   109   55  121 1    
   110   56  122 1    
   111   56  123 1    
   112   56  124 1    
   113   57   58 2    
   114   57   59 am   BACKBONE|DICT|INTERRES
   115   59   60 1    
   116   59  125 1    
   117   60   61 1    
   118   60   62 1    
   119   60  126 1    
   120   61  127 1    
   121   61  128 1    
   122   61  129 1    
   123   62   63 2    
   124   62   64 am   BACKBONE|DICT|INTERRES
   125   64   65 1    
   126   64  130 1    
   127   65   66 1    
   128   65   69 1    
   129   65  131 1    
   130   66   67 am   BACKBONE|DICT|INTERRES
   131   66   68 2    
   132   67  132 1    
   133   67  133 1    
   134   69   70 1    
   135   69  134 1    
   136   69  135 1    
   137   70   71 1    
   138   71  136 1    
   139   71  137 1    
@<TRIPOS>SUBSTRUCTURE
     1 UNK         1 GROUP             0       ****    0 ROOT    
