@<TRIPOS>MOLECULE
3R137
137   139    1
SMALL
USER_CHARGES


@<TRIPOS>ATOM
      1 CA         31.1054   -5.8374   -5.7199 C.3       0 UNK        -0.2020 
      2 C          29.9646   -6.4310   -4.9077 C.2       0 UNK         0.4855 
      3 O          29.5998   -7.5883   -5.1147 O.2       0 UNK        -0.5197 
      4 N          29.3983   -5.6465   -3.9822 N.am      1 UNK        -0.4892 
      5 CA         28.2697   -6.0286   -3.1218 C.3       1 UNK         0.0835 
      6 C6         28.1251   -5.0706   -1.9100 C.3       12 UNK        -0.0855 
      7 S7         28.0909   -3.2950   -2.3643 S.3       12 UNK        -0.2931 
      8 C8         29.4208   -2.6643   -1.2967 C.3       12 UNK         0.0378 
      9 C9         29.7458   -1.2080   -1.5887 C.ar      12 UNK        -0.0802 
     10 C10        30.8780   -0.8800   -2.3393 C.ar      12 UNK        -0.0944 
     11 C11        31.2232    0.4568   -2.5566 C.ar      12 UNK        -0.0787 
     12 C12        30.4173    1.4715   -2.0327 C.ar      12 UNK        -0.0862 
     13 C13        29.2744    1.1553   -1.2910 C.ar      12 UNK        -0.0733 
     14 C14        28.9445   -0.1862   -1.0707 C.ar      12 UNK        -0.0832 
     15 C15        28.4145    2.2599   -0.6946 C.3       12 UNK         0.0240 
     16 S16        26.8422    2.4615   -1.5876 S.3       12 UNK        -0.2522 
     17 C17        27.3923    3.1417   -3.1920 C.3       12 UNK        -0.0967 
     18 CA         27.2928    2.1067   -4.3515 C.3       5 UNK         0.0660 
     19 N          25.9625    1.5021   -4.4959 N.am      5 UNK        -0.4015 
     20 C          24.7732    2.1087   -4.6089 C.2       4 UNK         0.4946 
     21 O          24.6219    3.3308   -4.6595 O.2       4 UNK        -0.5353 
     22 CA         23.5100    1.2165   -4.6037 C.3       4 UNK         0.0277 
     23 CB         22.8823    1.1042   -6.0067 C.3       4 UNK        -0.1981 
     24 N          23.6524   -0.1122   -3.9796 N.am      4 UNK        -0.4209 
     25 C          24.4209   -1.1411   -4.3663 C.2       3 UNK         0.4942 
     26 O          25.1945   -1.0865   -5.3249 O.2       3 UNK        -0.5208 
     27 CA         24.3859   -2.4000   -3.4790 C.3       3 UNK         0.0250 
     28 CB         22.9714   -2.7590   -2.9694 C.3       3 UNK        -0.1990 
     29 N          25.0334   -3.5424   -4.1327 N.am      3 UNK        -0.4232 
     30 C          24.6087   -4.2401   -5.1991 C.2       2 UNK         0.4993 
     31 O          23.5099   -4.0842   -5.7343 O.2       2 UNK        -0.5286 
     32 CA         25.5748   -5.2919   -5.7843 C.3       2 UNK         0.0209 
     33 CB         25.9449   -4.9434   -7.2345 C.3       2 UNK        -0.1931 
     34 N          26.8114   -5.4337   -5.0101 N.am      2 UNK        -0.4546 
     35 C          26.9318   -6.1464   -3.8822 C.2       1 UNK         0.5154 
     36 O          26.0290   -6.8447   -3.4189 O.2       1 UNK        -0.5181 
     37 C          27.8207    2.6752   -5.6867 C.2       5 UNK         0.5014 
     38 O          27.0975    2.7220   -6.6858 O.2       5 UNK        -0.5248 
     39 N          29.0986    3.0845   -5.6800 N.am      6 UNK        -0.4434 
     40 CA         29.8325    3.7004   -6.7908 C.3       6 UNK         0.0363 
     41 CB         29.3180    5.1358   -7.0449 C.3       6 UNK        -0.1936 
     42 C          29.8454    2.7995   -8.0398 C.2       6 UNK         0.5081 
     43 O          30.2547    1.6425   -7.9381 O.2       6 UNK        -0.5248 
     44 N          29.4062    3.3222   -9.1923 N.am      7 UNK        -0.4718 
     45 CA         29.3753    2.6203  -10.4792 C.3       7 UNK         0.0273 
     46 CB         28.8894    3.5842  -11.5730 C.3       7 UNK        -0.1935 
     47 C          28.5285    1.3353  -10.4787 C.2       7 UNK         0.5018 
     48 O          28.8813    0.3908  -11.1847 O.2       7 UNK        -0.5186 
     49 N          27.4600    1.3006   -9.6686 N.am      8 UNK        -0.4240 
     50 CA         26.5960    0.1286   -9.5033 C.3       8 UNK         0.0235 
     51 CB         25.3027    0.5367   -8.7849 C.3       8 UNK        -0.2000 
     52 C          27.2896   -1.0207   -8.7534 C.2       8 UNK         0.4941 
     53 O          27.0697   -2.1806   -9.0992 O.2       8 UNK        -0.5273 
     54 N          28.1384   -0.6775   -7.7749 N.am      9 UNK        -0.4262 
     55 CA         28.9490   -1.6199   -6.9981 C.3       9 UNK         0.0264 
     56 CB         29.0636   -1.1034   -5.5547 C.3       9 UNK        -0.1955 
     57 C          30.3370   -1.8701   -7.6222 C.2       9 UNK         0.5031 
     58 O          31.1229   -2.6195   -7.0417 O.2       9 UNK        -0.5390 
     59 N          30.6089   -1.2548   -8.7839 N.am      10 UNK        -0.4204 
     60 CA         31.8521   -1.2979   -9.5612 C.3       10 UNK         0.0237 
     61 CB         32.1231   -2.7221  -10.0933 C.3       10 UNK        -0.1985 
     62 C          33.0564   -0.6858   -8.8171 C.2       10 UNK         0.4970 
     63 O          34.1687   -1.2078   -8.9183 O.2       10 UNK        -0.4914 
     64 N          32.8169    0.4203   -8.1040 N.am      11 UNK        -0.4285 
     65 CA         33.8163    1.1769   -7.3329 C.3       11 UNK         0.1007 
     66 C          33.8239    2.7007   -7.6477 C.2       11 UNK         0.5703 
     67 N          33.1729    3.1590   -8.7107 N.am      11 UNK        -0.7361 
     68 O          34.4561    3.4812   -6.9400 O.2       11 UNK        -0.4986 
     69 C69        33.7435    0.8490   -5.8172 C.3       12 UNK        -0.0947 
     70 S70        32.1098    1.1547   -5.0690 S.3       12 UNK        -0.2240 
     71 C71        32.4851    0.7972   -3.3313 C.3       12 UNK         0.0194 
     72 H72        31.9825   -6.4815   -5.6652 H         1 UNK         0.0906 
     73 H73        30.8143   -5.7445   -6.7660 H         1 UNK         0.0906 
     74 H74        31.3901   -4.8483   -5.3609 H         1 UNK         0.0906 
     75 H75        29.7340   -4.7021   -3.8502 H         1 UNK         0.3140 
     76 H76        28.4798   -7.0267   -2.7299 H         1 UNK         0.1085 
     77 H77        27.2276   -5.3005   -1.3315 H         1 UNK         0.0836 
     78 H78        28.9539   -5.2513   -1.2240 H         1 UNK         0.0836 
     79 H79        30.3131   -3.2787   -1.4282 H         1 UNK         0.0731 
     80 H80        29.1252   -2.7725   -0.2519 H         1 UNK         0.0731 
     81 H81        31.5033   -1.6659   -2.7405 H         1 UNK         0.1312 
     82 H82        30.6897    2.5057   -2.1930 H         1 UNK         0.1406 
     83 H83        28.0674   -0.4350   -0.4883 H         1 UNK         0.1631 
     84 H84        28.9503    3.2104   -0.6800 H         1 UNK         0.0717 
     85 H85        28.1963    2.0207    0.3473 H         1 UNK         0.0717 
     86 H86        26.7899    4.0249   -3.4100 H         1 UNK         0.0934 
     87 H87        28.4126    3.5105   -3.0813 H         1 UNK         0.0934 
     88 H88        27.9532    1.2759   -4.0993 H         1 UNK         0.0739 
     89 H89        25.9497    0.4924   -4.5992 H         1 UNK         0.3093 
     90 H90        22.7914    1.7486   -3.9780 H         1 UNK         0.0818 
     91 H91        22.8088    2.0809   -6.4870 H         1 UNK         0.0819 
     92 H92        23.4638    0.4602   -6.6629 H         1 UNK         0.0819 
     93 H93        21.8742    0.6937   -5.9529 H         1 UNK         0.0819 
     94 H94        23.0971   -0.2442   -3.1455 H         1 UNK         0.3041 
     95 H95        25.0038   -2.1741   -2.6085 H         1 UNK         0.0784 
     96 H96        22.6000   -2.0146   -2.2647 H         1 UNK         0.0793 
     97 H97        22.2490   -2.8262   -3.7838 H         1 UNK         0.0793 
     98 H98        22.9719   -3.7153   -2.4461 H         1 UNK         0.0793 
     99 H99        25.9712   -3.7347   -3.8085 H         1 UNK         0.3024 
    100 H100       25.0457   -6.2478   -5.7855 H         1 UNK         0.1171 
    101 H101       25.0564   -4.8828   -7.8644 H         1 UNK         0.0786 
    102 H102       26.4489   -3.9792   -7.2928 H         1 UNK         0.0786 
    103 H103       26.6013   -5.6955   -7.6725 H         1 UNK         0.0786 
    104 H104       27.6089   -4.8945   -5.3146 H         1 UNK         0.2977 
    105 H105       29.6478    2.9264   -4.8473 H         1 UNK         0.3127 
    106 H106       30.8726    3.7752   -6.4697 H         1 UNK         0.0770 
    107 H107       28.2792    5.1493   -7.3773 H         1 UNK         0.0814 
    108 H108       29.9198    5.6464   -7.7979 H         1 UNK         0.0814 
    109 H109       29.3771    5.7357   -6.1367 H         1 UNK         0.0814 
    110 H110       29.0724    4.2753   -9.1868 H         1 UNK         0.2983 
    111 H111       30.4004    2.3269  -10.7149 H         1 UNK         0.0947 
    112 H112       28.8781    3.0945  -12.5480 H         1 UNK         0.0806 
    113 H113       29.5434    4.4523  -11.6574 H         1 UNK         0.0806 
    114 H114       27.8779    3.9419  -11.3765 H         1 UNK         0.0806 
    115 H115       27.2664    2.1027   -9.0822 H         1 UNK         0.3000 
    116 H116       26.3300   -0.2380  -10.4973 H         1 UNK         0.0850 
    117 H117       24.6280   -0.3154   -8.6906 H         1 UNK         0.0810 
    118 H118       24.7697    1.3161   -9.3295 H         1 UNK         0.0810 
    119 H119       25.5038    0.9047   -7.7784 H         1 UNK         0.0810 
    120 H120       28.2990    0.3059   -7.5977 H         1 UNK         0.3040 
    121 H121       28.4448   -2.5872   -6.9616 H         1 UNK         0.0766 
    122 H122       29.5194   -0.1148   -5.5185 H         1 UNK         0.0812 
    123 H123       29.6758   -1.7672   -4.9431 H         1 UNK         0.0812 
    124 H124       28.0850   -1.0444   -5.0781 H         1 UNK         0.0812 
    125 H125       29.8932   -0.6427   -9.1516 H         1 UNK         0.3205 
    126 H126       31.6816   -0.6561  -10.4268 H         1 UNK         0.0754 
    127 H127       32.9639   -2.7269  -10.7880 H         1 UNK         0.0769 
    128 H128       31.2595   -3.1155  -10.6296 H         1 UNK         0.0769 
    129 H129       32.3636   -3.4173   -9.2882 H         1 UNK         0.0769 
    130 H130       31.8657    0.7812   -8.0435 H         1 UNK         0.2981 
    131 H131       34.8078    0.8622   -7.6621 H         1 UNK         0.0541 
    132 H132       33.2060    4.1439   -8.9195 H         1 UNK         0.3459 
    133 H133       32.6841    2.5266   -9.3221 H         1 UNK         0.3459 
    134 H134       34.5002    1.4056   -5.2616 H         1 UNK         0.0612 
    135 H135       33.9829   -0.2052   -5.6696 H         1 UNK         0.0612 
    136 H136       33.1917   -0.0323   -3.2727 H         1 UNK         0.0624 
    137 H137       32.9833    1.6592   -2.8853 H         1 UNK         0.0624 
@<TRIPOS>BOND
     1    1    2 1    
     2    1   72 1    
     3    1   73 1    
     4    1   74 1    
     5    2    3 2    
     6    2    4 am   BACKBONE|DICT|INTERRES
     7    4    5 1    
     8    4   75 1    
     9    5    6 1    
    10    5   35 1    
    11    5   76 1    
    12    6    7 1    
    13    6   77 1    
    14    6   78 1    
    15    7    8 1    
    16    8    9 1    
    17    8   79 1    
    18    8   80 1    
    19    9   10 ar   
    20    9   14 ar   
    21   10   11 ar   
    22   10   81 1    
    23   11   12 ar   
    24   11   71 1    
    25   12   13 ar   
    26   12   82 1    
    27   13   14 ar   
    28   13   15 1    
    29   14   83 1    
    30   15   16 1    
    31   15   84 1    
    32   15   85 1    
    33   16   17 1    
    34   17   18 1    
    35   17   86 1    
    36   17   87 1    
    37   18   19 1    
    38   18   37 1    
    39   18   88 1    
    40   19   20 am   BACKBONE|DICT|INTERRES
    41   19   89 1    
    42   20   21 2    
    43   20   22 1    
    44   22   23 1    
    45   22   24 1    
    46   22   90 1    
    47   23   91 1    
    48   23   92 1    
    49   23   93 1    
    50   24   25 am   BACKBONE|DICT|INTERRES
    51   24   94 1    
    52   25   26 2    
    53   25   27 1    
    54   27   28 1    
    55   27   29 1    
    56   27   95 1    
    57   28   96 1    
    58   28   97 1    
    59   28   98 1    
    60   29   30 am   BACKBONE|DICT|INTERRES
    61   29   99 1    
    62   30   31 2    
    63   30   32 1    
    64   32   33 1    
    65   32   34 1    
    66   32  100 1    
    67   33  101 1    
    68   33  102 1    
    69   33  103 1    
    70   34   35 am   BACKBONE|DICT|INTERRES
    71   34  104 1    
    72   35   36 2    
    73   37   38 2    
    74   37   39 am   BACKBONE|DICT|INTERRES
    75   39   40 1    
    76   39  105 1    
    77   40   41 1    
    78   40   42 1    
    79   40  106 1    
    80   41  107 1    
    81   41  108 1    
    82   41  109 1    
    83   42   43 2    
    84   42   44 am   BACKBONE|DICT|INTERRES
    85   44   45 1    
    86   44  110 1    
    87   45   46 1    
    88   45   47 1    
    89   45  111 1    
    90   46  112 1    
    91   46  113 1    
    92   46  114 1    
    93   47   48 2    
    94   47   49 am   BACKBONE|DICT|INTERRES
    95   49   50 1    
    96   49  115 1    
    97   50   51 1    
    98   50   52 1    
    99   50  116 1    
   100   51  117 1    
   101   51  118 1    
   102   51  119 1    
   103   52   53 2    
   104   52   54 am   BACKBONE|DICT|INTERRES
   105   54   55 1    
   106   54  120 1    
   107   55   56 1    
   108   55   57 1    
   109   55  121 1    
   110   56  122 1    
   111   56  123 1    
   112   56  124 1    
   113   57   58 2    
   114   57   59 am   BACKBONE|DICT|INTERRES
   115   59   60 1    
   116   59  125 1    
   117   60   61 1    
   118   60   62 1    
   119   60  126 1    
   120   61  127 1    
   121   61  128 1    
   122   61  129 1    
   123   62   63 2    
   124   62   64 am   BACKBONE|DICT|INTERRES
   125   64   65 1    
   126   64  130 1    
   127   65   66 1    
   128   65   69 1    
   129   65  131 1    
   130   66   67 am   BACKBONE|DICT|INTERRES
   131   66   68 2    
   132   67  132 1    
   133   67  133 1    
   134   69   70 1    
   135   69  134 1    
   136   69  135 1    
   137   70   71 1    
   138   71  136 1    
   139   71  137 1    
@<TRIPOS>SUBSTRUCTURE
     1 UNK         1 GROUP             0       ****    0 ROOT    
