@<TRIPOS>MOLECULE
3R137
137   139    1
SMALL
USER_CHARGES


@<TRIPOS>ATOM
      1 CA         27.5302   -3.4332    3.5238 C.3       0 UNK        -0.2020 
      2 C          27.9532   -2.4755    2.4198 C.2       0 UNK         0.4855 
      3 O          28.1721   -1.2930    2.6860 O.2       0 UNK        -0.5197 
      4 N          28.0798   -2.9785    1.1858 N.am      1 UNK        -0.4892 
      5 CA         28.4278   -2.1945   -0.0056 C.3       1 UNK         0.0835 
      6 C6         28.8976   -3.0964   -1.1722 C.3       12 UNK        -0.0855 
      7 S7         30.4280   -3.9889   -0.7482 S.3       12 UNK        -0.2931 
      8 C8         30.4588   -5.2671   -2.0436 C.3       12 UNK         0.0378 
      9 C9         30.6636   -4.6889   -3.4390 C.ar      12 UNK        -0.0802 
     10 C10        31.7987   -3.9235   -3.7263 C.ar      12 UNK        -0.0944 
     11 C11        32.0323   -3.4486   -5.0194 C.ar      12 UNK        -0.0787 
     12 C12        31.1108   -3.7500   -6.0289 C.ar      12 UNK        -0.0862 
     13 C13        29.9650   -4.5070   -5.7619 C.ar      12 UNK        -0.0733 
     14 C14        29.7495   -4.9732   -4.4588 C.ar      12 UNK        -0.0832 
     15 C15        29.0410   -4.8685   -6.9267 C.3       12 UNK         0.0240 
     16 S16        27.3074   -5.2572   -6.4931 S.3       12 UNK        -0.2522 
     17 C17        26.6644   -3.6645   -5.8823 C.3       12 UNK        -0.0967 
     18 CA         26.3988   -2.6388   -7.0226 C.3       5 UNK         0.0660 
     19 N          25.1014   -1.9696   -6.8942 N.am      5 UNK        -0.4015 
     20 C          24.5733   -1.1169   -7.7876 C.2       4 UNK         0.4946 
     21 O          25.1142   -0.8021   -8.8464 O.2       4 UNK        -0.5353 
     22 CA         23.2171   -0.4826   -7.4357 C.3       4 UNK         0.0277 
     23 CB         22.0674   -1.3042   -8.0403 C.3       4 UNK        -0.1981 
     24 N          23.0045   -0.3299   -5.9953 N.am      4 UNK        -0.4209 
     25 C          23.7480    0.4390   -5.1878 C.2       3 UNK         0.4942 
     26 O          24.6675    1.1579   -5.5896 O.2       3 UNK        -0.5208 
     27 CA         23.3931    0.3904   -3.6872 C.3       3 UNK         0.0250 
     28 CB         22.8370   -0.9801   -3.2340 C.3       3 UNK        -0.1990 
     29 N          24.5040    0.7846   -2.8152 N.am      3 UNK        -0.4232 
     30 C          25.7215    0.2269   -2.7344 C.2       2 UNK         0.4993 
     31 O          26.1168   -0.6905   -3.4636 O.2       2 UNK        -0.5286 
     32 CA         26.6705    0.8180   -1.6670 C.3       2 UNK         0.0209 
     33 CB         25.9463    1.5714   -0.5252 C.3       2 UNK        -0.1931 
     34 N          27.5864   -0.1861   -1.1120 N.am      2 UNK        -0.4546 
     35 C          27.2506   -1.3041   -0.4509 C.2       1 UNK         0.5154 
     36 O          26.0898   -1.6486   -0.2070 O.2       1 UNK        -0.5181 
     37 C          27.5404   -1.6149   -7.1338 C.2       5 UNK         0.5014 
     38 O          28.2361   -1.5870   -8.1511 O.2       5 UNK        -0.5248 
     39 N          27.6847   -0.7666   -6.1039 N.am      6 UNK        -0.4434 
     40 CA         28.7209    0.2631   -6.0629 C.3       6 UNK         0.0363 
     41 CB         28.8012    0.8840   -4.6640 C.3       6 UNK        -0.1936 
     42 C          28.5188    1.3543   -7.1203 C.2       6 UNK         0.5081 
     43 O          29.5121    1.8470   -7.6497 O.2       6 UNK        -0.5248 
     44 N          27.2582    1.6903   -7.4321 N.am      7 UNK        -0.4718 
     45 CA         26.9029    2.6474   -8.4821 C.3       7 UNK         0.0273 
     46 CB         25.3970    2.9463   -8.4290 C.3       7 UNK        -0.1935 
     47 C          27.3179    2.1755   -9.8863 C.2       7 UNK         0.5018 
     48 O          27.8722    2.9711  -10.6453 O.2       7 UNK        -0.5186 
     49 N          27.0636    0.8967  -10.2008 N.am      8 UNK        -0.4240 
     50 CA         27.4436    0.2742  -11.4703 C.3       8 UNK         0.0235 
     51 CB         26.6794   -1.0472  -11.6522 C.3       8 UNK        -0.2000 
     52 C          28.9573    0.0401  -11.5842 C.2       8 UNK         0.4941 
     53 O          29.5339    0.3249  -12.6346 O.2       8 UNK        -0.5273 
     54 N          29.5716   -0.4808  -10.5132 N.am      9 UNK        -0.4262 
     55 CA         30.9950   -0.8268  -10.4733 C.3       9 UNK         0.0264 
     56 CB         31.2102   -1.8848   -9.3833 C.3       9 UNK        -0.1955 
     57 C          31.9330    0.3753  -10.2535 C.2       9 UNK         0.5031 
     58 O          33.1327    0.2373  -10.4971 O.2       9 UNK        -0.5390 
     59 N          31.3871    1.5101   -9.7906 N.am      10 UNK        -0.4204 
     60 CA         32.0806    2.7370   -9.3760 C.3       10 UNK         0.0237 
     61 CB         32.8241    3.3963  -10.5582 C.3       10 UNK        -0.1985 
     62 C          32.9694    2.5130   -8.1351 C.2       10 UNK         0.4970 
     63 O          34.0911    3.0215   -8.0778 O.2       10 UNK        -0.4914 
     64 N          32.4477    1.7489   -7.1678 N.am      11 UNK        -0.4285 
     65 CA         33.1031    1.4511   -5.8851 C.3       11 UNK         0.1007 
     66 C          32.8691    2.5804   -4.8471 C.2       11 UNK         0.5703 
     67 N          33.7669    2.7273   -3.8821 N.am      11 UNK        -0.7361 
     68 O          31.8740    3.3020   -4.8849 O.2       11 UNK        -0.4986 
     69 C69        32.6766    0.0690   -5.3201 C.3       12 UNK        -0.0947 
     70 S70        33.1361   -1.2835   -6.4516 S.3       12 UNK        -0.2240 
     71 C71        33.3319   -2.7066   -5.3279 C.3       12 UNK         0.0194 
     72 H72        28.2885   -3.4633    4.3058 H         1 UNK         0.0906 
     73 H73        26.5933   -3.1005    3.9699 H         1 UNK         0.0906 
     74 H74        27.3869   -4.4476    3.1518 H         1 UNK         0.0906 
     75 H75        27.8771   -3.9537    1.0205 H         1 UNK         0.3140 
     76 H76        29.2534   -1.5324    0.2667 H         1 UNK         0.1085 
     77 H77        29.0960   -2.5058   -2.0695 H         1 UNK         0.0836 
     78 H78        28.1196   -3.8132   -1.4431 H         1 UNK         0.0836 
     79 H79        31.2732   -5.9608   -1.8305 H         1 UNK         0.0731 
     80 H80        29.5386   -5.8510   -1.9895 H         1 UNK         0.0731 
     81 H81        32.5166   -3.7242   -2.9421 H         1 UNK         0.1312 
     82 H82        31.3054   -3.4221   -7.0393 H         1 UNK         0.1406 
     83 H83        28.8874   -5.5880   -4.2409 H         1 UNK         0.1631 
     84 H84        29.4621   -5.7440   -7.4223 H         1 UNK         0.0717 
     85 H85        29.0472   -4.0747   -7.6735 H         1 UNK         0.0717 
     86 H86        27.3262   -3.2802   -5.1026 H         1 UNK         0.0934 
     87 H87        25.7345   -3.9003   -5.3625 H         1 UNK         0.0934 
     88 H88        26.3575   -3.1718   -7.9753 H         1 UNK         0.0739 
     89 H89        24.5871   -2.1419   -6.0440 H         1 UNK         0.3093 
     90 H90        23.1930    0.5134   -7.8811 H         1 UNK         0.0818 
     91 H91        21.1038   -0.8220   -7.8746 H         1 UNK         0.0819 
     92 H92        22.1917   -1.4112   -9.1190 H         1 UNK         0.0819 
     93 H93        22.0192   -2.3085   -7.6173 H         1 UNK         0.0819 
     94 H94        22.2554   -0.8705   -5.5872 H         1 UNK         0.3041 
     95 H95        22.6111    1.1361   -3.5374 H         1 UNK         0.0784 
     96 H96        21.8816   -1.2085   -3.7072 H         1 UNK         0.0793 
     97 H97        23.5273   -1.7935   -3.4622 H         1 UNK         0.0793 
     98 H98        22.6613   -0.9944   -2.1580 H         1 UNK         0.0793 
     99 H99        24.3100    1.5614   -2.1998 H         1 UNK         0.3024 
    100 H100       27.2943    1.5463   -2.1854 H         1 UNK         0.1171 
    101 H101       26.6542    1.9089    0.2321 H         1 UNK         0.0786 
    102 H102       25.2072    0.9433   -0.0258 H         1 UNK         0.0786 
    103 H103       25.4350    2.4621   -0.8918 H         1 UNK         0.0786 
    104 H104       28.5666   -0.0162   -1.2879 H         1 UNK         0.2977 
    105 H105       27.0566   -0.8217   -5.3064 H         1 UNK         0.3127 
    106 H106       29.6705   -0.2297   -6.2783 H         1 UNK         0.0770 
    107 H107       27.8934    1.4401   -4.4322 H         1 UNK         0.0814 
    108 H108       29.6346    1.5842   -4.5957 H         1 UNK         0.0814 
    109 H109       28.9481    0.1233   -3.8973 H         1 UNK         0.0814 
    110 H110       26.4950    1.2580   -6.9241 H         1 UNK         0.2983 
    111 H111       27.4399    3.5758   -8.2753 H         1 UNK         0.0947 
    112 H112       25.1242    3.7041   -9.1645 H         1 UNK         0.0806 
    113 H113       25.0998    3.3218   -7.4496 H         1 UNK         0.0806 
    114 H114       24.8032    2.0579   -8.6417 H         1 UNK         0.0806 
    115 H115       26.5617    0.3102   -9.5381 H         1 UNK         0.3000 
    116 H116       27.1497    0.9468  -12.2792 H         1 UNK         0.0850 
    117 H117       26.9424   -1.5260  -12.5963 H         1 UNK         0.0810 
    118 H118       25.6018   -0.8823  -11.6605 H         1 UNK         0.0810 
    119 H119       26.9009   -1.7549  -10.8517 H         1 UNK         0.0810 
    120 H120       29.0184   -0.7290   -9.6948 H         1 UNK         0.3040 
    121 H121       31.2685   -1.2752  -11.4310 H         1 UNK         0.0766 
    122 H122       32.2557   -2.1916   -9.3314 H         1 UNK         0.0812 
    123 H123       30.9295   -1.4994   -8.4030 H         1 UNK         0.0812 
    124 H124       30.6168   -2.7791   -9.5737 H         1 UNK         0.0812 
    125 H125       30.4018    1.4881   -9.5530 H         1 UNK         0.3205 
    126 H126       31.2985    3.4294   -9.0612 H         1 UNK         0.0754 
    127 H127       33.2089    4.3773  -10.2768 H         1 UNK         0.0769 
    128 H128       32.1610    3.5412  -11.4111 H         1 UNK         0.0769 
    129 H129       33.6737    2.7994  -10.8905 H         1 UNK         0.0769 
    130 H130       31.4788    1.4677   -7.2595 H         1 UNK         0.2981 
    131 H131       34.1795    1.4073   -6.0643 H         1 UNK         0.0541 
    132 H132       34.5836    2.1384   -3.8335 H         1 UNK         0.3459 
    133 H133       33.6277    3.4479   -3.1911 H         1 UNK         0.3459 
    134 H134       31.6048    0.0293   -5.1321 H         1 UNK         0.0612 
    135 H135       33.1606   -0.1093   -4.3585 H         1 UNK         0.0612 
    136 H136       34.0155   -3.4141   -5.7984 H         1 UNK         0.0624 
    137 H137       33.8220   -2.3767   -4.4108 H         1 UNK         0.0624 
@<TRIPOS>BOND
     1    1    2 1    
     2    1   72 1    
     3    1   73 1    
     4    1   74 1    
     5    2    3 2    
     6    2    4 am   BACKBONE|DICT|INTERRES
     7    4    5 1    
     8    4   75 1    
     9    5    6 1    
    10    5   35 1    
    11    5   76 1    
    12    6    7 1    
    13    6   77 1    
    14    6   78 1    
    15    7    8 1    
    16    8    9 1    
    17    8   79 1    
    18    8   80 1    
    19    9   10 ar   
    20    9   14 ar   
    21   10   11 ar   
    22   10   81 1    
    23   11   12 ar   
    24   11   71 1    
    25   12   13 ar   
    26   12   82 1    
    27   13   14 ar   
    28   13   15 1    
    29   14   83 1    
    30   15   16 1    
    31   15   84 1    
    32   15   85 1    
    33   16   17 1    
    34   17   18 1    
    35   17   86 1    
    36   17   87 1    
    37   18   19 1    
    38   18   37 1    
    39   18   88 1    
    40   19   20 am   BACKBONE|DICT|INTERRES
    41   19   89 1    
    42   20   21 2    
    43   20   22 1    
    44   22   23 1    
    45   22   24 1    
    46   22   90 1    
    47   23   91 1    
    48   23   92 1    
    49   23   93 1    
    50   24   25 am   BACKBONE|DICT|INTERRES
    51   24   94 1    
    52   25   26 2    
    53   25   27 1    
    54   27   28 1    
    55   27   29 1    
    56   27   95 1    
    57   28   96 1    
    58   28   97 1    
    59   28   98 1    
    60   29   30 am   BACKBONE|DICT|INTERRES
    61   29   99 1    
    62   30   31 2    
    63   30   32 1    
    64   32   33 1    
    65   32   34 1    
    66   32  100 1    
    67   33  101 1    
    68   33  102 1    
    69   33  103 1    
    70   34   35 am   BACKBONE|DICT|INTERRES
    71   34  104 1    
    72   35   36 2    
    73   37   38 2    
    74   37   39 am   BACKBONE|DICT|INTERRES
    75   39   40 1    
    76   39  105 1    
    77   40   41 1    
    78   40   42 1    
    79   40  106 1    
    80   41  107 1    
    81   41  108 1    
    82   41  109 1    
    83   42   43 2    
    84   42   44 am   BACKBONE|DICT|INTERRES
    85   44   45 1    
    86   44  110 1    
    87   45   46 1    
    88   45   47 1    
    89   45  111 1    
    90   46  112 1    
    91   46  113 1    
    92   46  114 1    
    93   47   48 2    
    94   47   49 am   BACKBONE|DICT|INTERRES
    95   49   50 1    
    96   49  115 1    
    97   50   51 1    
    98   50   52 1    
    99   50  116 1    
   100   51  117 1    
   101   51  118 1    
   102   51  119 1    
   103   52   53 2    
   104   52   54 am   BACKBONE|DICT|INTERRES
   105   54   55 1    
   106   54  120 1    
   107   55   56 1    
   108   55   57 1    
   109   55  121 1    
   110   56  122 1    
   111   56  123 1    
   112   56  124 1    
   113   57   58 2    
   114   57   59 am   BACKBONE|DICT|INTERRES
   115   59   60 1    
   116   59  125 1    
   117   60   61 1    
   118   60   62 1    
   119   60  126 1    
   120   61  127 1    
   121   61  128 1    
   122   61  129 1    
   123   62   63 2    
   124   62   64 am   BACKBONE|DICT|INTERRES
   125   64   65 1    
   126   64  130 1    
   127   65   66 1    
   128   65   69 1    
   129   65  131 1    
   130   66   67 am   BACKBONE|DICT|INTERRES
   131   66   68 2    
   132   67  132 1    
   133   67  133 1    
   134   69   70 1    
   135   69  134 1    
   136   69  135 1    
   137   70   71 1    
   138   71  136 1    
   139   71  137 1    
@<TRIPOS>SUBSTRUCTURE
     1 UNK         1 GROUP             0       ****    0 ROOT    
