@<TRIPOS>MOLECULE
3R137
137   139    1
SMALL
USER_CHARGES


@<TRIPOS>ATOM
      1 CA         25.7331   -5.7030   -4.5138 C.3       0 UNK        -0.2020 
      2 C          26.1293   -4.6171   -3.5248 C.2       0 UNK         0.4855 
      3 O          26.3469   -3.4743   -3.9302 O.2       0 UNK        -0.5197 
      4 N          26.2149   -4.9830   -2.2371 N.am      1 UNK        -0.4892 
      5 CA         26.6686   -4.1647   -1.1015 C.3       1 UNK         0.0835 
      6 C6         28.2184   -4.0480   -1.0373 C.3       12 UNK        -0.0855 
      7 S7         29.0363   -5.6740   -0.8969 S.3       12 UNK        -0.2931 
      8 C8         30.7988   -5.1916   -0.8694 C.3       12 UNK         0.0378 
      9 C9         31.2124   -4.3612   -2.0806 C.ar      12 UNK        -0.0802 
     10 C10        31.9189   -3.1657   -1.9072 C.ar      12 UNK        -0.0944 
     11 C11        32.2729   -2.3705   -3.0037 C.ar      12 UNK        -0.0787 
     12 C12        31.9157   -2.7989   -4.2887 C.ar      12 UNK        -0.0862 
     13 C13        31.1948   -3.9813   -4.4744 C.ar      12 UNK        -0.0733 
     14 C14        30.8684   -4.7707   -3.3718 C.ar      12 UNK        -0.0832 
     15 C15        30.7159   -4.3772   -5.8617 C.3       12 UNK         0.0240 
     16 S16        28.9515   -3.9739   -6.0935 S.3       12 UNK        -0.2522 
     17 C17        28.9037   -2.1917   -5.6922 C.3       12 UNK        -0.0967 
     18 CA         27.9114   -1.4224   -6.5908 C.3       5 UNK         0.0660 
     19 N          26.5121   -1.6542   -6.2206 N.am      5 UNK        -0.4015 
     20 C          25.4746   -1.2849   -6.9854 C.2       4 UNK         0.4946 
     21 O          25.5957   -0.7527   -8.0911 O.2       4 UNK        -0.5353 
     22 CA         24.0667   -1.4961   -6.4068 C.3       4 UNK         0.0277 
     23 CB         23.6881   -2.9831   -6.3468 C.3       4 UNK        -0.1981 
     24 N          23.8948   -0.8682   -5.0927 N.am      4 UNK        -0.4209 
     25 C          23.8899    0.4593   -4.9072 C.2       3 UNK         0.4942 
     26 O          24.0795    1.2748   -5.8078 O.2       3 UNK        -0.5208 
     27 CA         23.6233    0.9875   -3.4887 C.3       3 UNK         0.0250 
     28 CB         22.1165    0.9632   -3.1840 C.3       3 UNK        -0.1990 
     29 N          24.3498    0.3352   -2.3954 N.am      3 UNK        -0.4232 
     30 C          25.6584    0.0499   -2.3462 C.2       2 UNK         0.4993 
     31 O          26.4203    0.1002   -3.3128 O.2       2 UNK        -0.5286 
     32 CA         26.2409   -0.3107   -0.9677 C.3       2 UNK         0.0209 
     33 CB         25.3281    0.0290    0.2354 C.3       2 UNK        -0.1931 
     34 N          26.6875   -1.7029   -0.9295 N.am      2 UNK        -0.4546 
     35 C          25.9306   -2.8053   -1.0361 C.2       1 UNK         0.5154 
     36 O          24.6975   -2.7909   -1.0811 O.2       1 UNK        -0.5181 
     37 C          28.2634    0.0773   -6.6442 C.2       5 UNK         0.5014 
     38 O          29.0648    0.4575   -7.4989 O.2       5 UNK        -0.5248 
     39 N          27.6623    0.9025   -5.7724 N.am      6 UNK        -0.4434 
     40 CA         27.8180    2.3596   -5.7811 C.3       6 UNK         0.0363 
     41 CB         27.1841    2.9729   -4.5231 C.3       6 UNK        -0.1936 
     42 C          27.2474    3.0107   -7.0515 C.2       6 UNK         0.5081 
     43 O          27.9272    3.8423   -7.6515 O.2       6 UNK        -0.5248 
     44 N          26.0376    2.6028   -7.4645 N.am      7 UNK        -0.4718 
     45 CA         25.3867    3.0583   -8.6985 C.3       7 UNK         0.0273 
     46 CB         23.9296    2.5715   -8.7326 C.3       7 UNK        -0.1935 
     47 C          26.1325    2.6136   -9.9666 C.2       7 UNK         0.5018 
     48 O          26.2203    3.3889  -10.9194 O.2       7 UNK        -0.5186 
     49 N          26.6821    1.3914   -9.9442 N.am      8 UNK        -0.4240 
     50 CA         27.5473    0.8544  -10.9979 C.3       8 UNK         0.0235 
     51 CB         27.6542   -0.6695  -10.8227 C.3       8 UNK        -0.2000 
     52 C          28.9544    1.4844  -11.0236 C.2       8 UNK         0.4941 
     53 O          29.6474    1.3426  -12.0317 O.2       8 UNK        -0.5273 
     54 N          29.3604    2.1268   -9.9159 N.am      9 UNK        -0.4262 
     55 CA         30.7007    2.6448   -9.6103 C.3       9 UNK         0.0264 
     56 CB         31.0627    3.8269  -10.5333 C.3       9 UNK        -0.1955 
     57 C          31.7708    1.5338   -9.6014 C.2       9 UNK         0.5031 
     58 O          32.9145    1.7703   -9.9962 O.2       9 UNK        -0.5390 
     59 N          31.3776    0.3353   -9.1480 N.am      10 UNK        -0.4204 
     60 CA         32.1509   -0.9067   -9.2437 C.3       10 UNK         0.0237 
     61 CB         31.2235   -2.0943   -8.9483 C.3       10 UNK        -0.1985 
     62 C          33.4122   -0.9504   -8.3625 C.2       10 UNK         0.4970 
     63 O          34.3160   -1.7335   -8.6573 O.2       10 UNK        -0.4914 
     64 N          33.4620   -0.1067   -7.3271 N.am      11 UNK        -0.4285 
     65 CA         34.6410    0.1448   -6.4855 C.3       11 UNK         0.1007 
     66 C          35.0740    1.6407   -6.4952 C.2       11 UNK         0.5703 
     67 N          34.6377    2.4484   -7.4572 N.am      11 UNK        -0.7361 
     68 O          35.8373    2.0769   -5.6366 O.2       11 UNK        -0.4986 
     69 C69        34.4915   -0.4695   -5.0660 C.3       12 UNK        -0.0947 
     70 S70        33.0511    0.1401   -4.1232 S.3       12 UNK        -0.2240 
     71 C71        33.0193   -1.0580   -2.7414 C.3       12 UNK         0.0194 
     72 H72        24.6514   -5.7246   -4.6412 H         1 UNK         0.0906 
     73 H73        26.1899   -5.5141   -5.4852 H         1 UNK         0.0906 
     74 H74        26.0602   -6.6866   -4.1773 H         1 UNK         0.0906 
     75 H75        25.9835   -5.9359   -1.9943 H         1 UNK         0.3140 
     76 H76        26.3482   -4.6963   -0.2038 H         1 UNK         0.1085 
     77 H77        28.5922   -3.5383   -1.9278 H         1 UNK         0.0836 
     78 H78        28.5336   -3.4596   -0.1734 H         1 UNK         0.0836 
     79 H79        31.4115   -6.0933   -0.8347 H         1 UNK         0.0731 
     80 H80        30.9950   -4.6487    0.0565 H         1 UNK         0.0731 
     81 H81        32.1840   -2.8422   -0.9095 H         1 UNK         0.1312 
     82 H82        32.1626   -2.2028   -5.1545 H         1 UNK         0.1406 
     83 H83        30.3029   -5.6815   -3.5159 H         1 UNK         0.1631 
     84 H84        30.8564   -5.4491   -6.0077 H         1 UNK         0.0717 
     85 H85        31.3127   -3.8860   -6.6299 H         1 UNK         0.0717 
     86 H86        28.6557   -2.0677   -4.6360 H         1 UNK         0.0934 
     87 H87        29.9085   -1.7871   -5.8133 H         1 UNK         0.0934 
     88 H88        28.0354   -1.7926   -7.6107 H         1 UNK         0.0739 
     89 H89        26.3499   -2.1204   -5.3303 H         1 UNK         0.3093 
     90 H90        23.3673   -1.0132   -7.0933 H         1 UNK         0.0818 
     91 H91        22.6402   -3.1138   -6.0766 H         1 UNK         0.0819 
     92 H92        23.8357   -3.4640   -7.3148 H         1 UNK         0.0819 
     93 H93        24.2895   -3.5224   -5.6193 H         1 UNK         0.0819 
     94 H94        23.7813   -1.4741   -4.2926 H         1 UNK         0.3041 
     95 H95        23.9420    2.0315   -3.4817 H         1 UNK         0.0784 
     96 H96        21.5488    1.4566   -3.9746 H         1 UNK         0.0793 
     97 H97        21.7382   -0.0562   -3.0984 H         1 UNK         0.0793 
     98 H98        21.8896    1.4850   -2.2541 H         1 UNK         0.0793 
     99 H99        23.8274    0.2048   -1.5414 H         1 UNK         0.3024 
    100 H100       27.1401    0.2997   -0.8667 H         1 UNK         0.1171 
    101 H101       25.8403   -0.1674    1.1775 H         1 UNK         0.0786 
    102 H102       25.0591    1.0863    0.2371 H         1 UNK         0.0786 
    103 H103       24.4029   -0.5473    0.2424 H         1 UNK         0.0786 
    104 H104       27.6898   -1.8253   -0.9442 H         1 UNK         0.2977 
    105 H105       27.0658    0.5110   -5.0453 H         1 UNK         0.3127 
    106 H106       28.8886    2.5746   -5.7545 H         1 UNK         0.0770 
    107 H107       26.1156    2.7657   -4.4679 H         1 UNK         0.0814 
    108 H108       27.3079    4.0565   -4.5121 H         1 UNK         0.0814 
    109 H109       27.6487    2.5849   -3.6166 H         1 UNK         0.0814 
    110 H110       25.5111    1.9461   -6.8920 H         1 UNK         0.2983 
    111 H111       25.3808    4.1504   -8.6884 H         1 UNK         0.0947 
    112 H112       23.4285    2.8953   -9.6458 H         1 UNK         0.0806 
    113 H113       23.3603    2.9695   -7.8926 H         1 UNK         0.0806 
    114 H114       23.8678    1.4830   -8.6918 H         1 UNK         0.0806 
    115 H115       26.4951    0.7892   -9.1475 H         1 UNK         0.3000 
    116 H116       27.0794    1.0575  -11.9636 H         1 UNK         0.0850 
    117 H117       28.2555   -1.1148  -11.6165 H         1 UNK         0.0810 
    118 H118       26.6727   -1.1431  -10.8537 H         1 UNK         0.0810 
    119 H119       28.1214   -0.9316   -9.8735 H         1 UNK         0.0810 
    120 H120       28.7090    2.1647   -9.1415 H         1 UNK         0.3040 
    121 H121       30.6502    3.0253   -8.5889 H         1 UNK         0.0766 
    122 H122       31.1929    3.5085  -11.5679 H         1 UNK         0.0812 
    123 H123       31.9954    4.2965  -10.2187 H         1 UNK         0.0812 
    124 H124       30.2901    4.5955  -10.5123 H         1 UNK         0.0812 
    125 H125       30.4481    0.2722   -8.7351 H         1 UNK         0.3205 
    126 H126       32.4908   -0.9980  -10.2775 H         1 UNK         0.0754 
    127 H127       31.7655   -3.0401   -8.9898 H         1 UNK         0.0769 
    128 H128       30.4141   -2.1546   -9.6759 H         1 UNK         0.0769 
    129 H129       30.7762   -2.0107   -7.9600 H         1 UNK         0.0769 
    130 H130       32.6721    0.4981   -7.1565 H         1 UNK         0.2981 
    131 H131       35.4996   -0.3551   -6.9366 H         1 UNK         0.0541 
    132 H132       34.0814    2.0975   -8.2266 H         1 UNK         0.3459 
    133 H133       34.9348    3.4112   -7.4546 H         1 UNK         0.3459 
    134 H134       35.3911   -0.2910   -4.4746 H         1 UNK         0.0612 
    135 H135       34.4166   -1.5537   -5.1553 H         1 UNK         0.0612 
    136 H136       34.0420   -1.2834   -2.4364 H         1 UNK         0.0624 
    137 H137       32.5510   -0.5567   -1.8931 H         1 UNK         0.0624 
@<TRIPOS>BOND
     1    1    2 1    
     2    1   72 1    
     3    1   73 1    
     4    1   74 1    
     5    2    3 2    
     6    2    4 am   BACKBONE|DICT|INTERRES
     7    4    5 1    
     8    4   75 1    
     9    5    6 1    
    10    5   35 1    
    11    5   76 1    
    12    6    7 1    
    13    6   77 1    
    14    6   78 1    
    15    7    8 1    
    16    8    9 1    
    17    8   79 1    
    18    8   80 1    
    19    9   10 ar   
    20    9   14 ar   
    21   10   11 ar   
    22   10   81 1    
    23   11   12 ar   
    24   11   71 1    
    25   12   13 ar   
    26   12   82 1    
    27   13   14 ar   
    28   13   15 1    
    29   14   83 1    
    30   15   16 1    
    31   15   84 1    
    32   15   85 1    
    33   16   17 1    
    34   17   18 1    
    35   17   86 1    
    36   17   87 1    
    37   18   19 1    
    38   18   37 1    
    39   18   88 1    
    40   19   20 am   BACKBONE|DICT|INTERRES
    41   19   89 1    
    42   20   21 2    
    43   20   22 1    
    44   22   23 1    
    45   22   24 1    
    46   22   90 1    
    47   23   91 1    
    48   23   92 1    
    49   23   93 1    
    50   24   25 am   BACKBONE|DICT|INTERRES
    51   24   94 1    
    52   25   26 2    
    53   25   27 1    
    54   27   28 1    
    55   27   29 1    
    56   27   95 1    
    57   28   96 1    
    58   28   97 1    
    59   28   98 1    
    60   29   30 am   BACKBONE|DICT|INTERRES
    61   29   99 1    
    62   30   31 2    
    63   30   32 1    
    64   32   33 1    
    65   32   34 1    
    66   32  100 1    
    67   33  101 1    
    68   33  102 1    
    69   33  103 1    
    70   34   35 am   BACKBONE|DICT|INTERRES
    71   34  104 1    
    72   35   36 2    
    73   37   38 2    
    74   37   39 am   BACKBONE|DICT|INTERRES
    75   39   40 1    
    76   39  105 1    
    77   40   41 1    
    78   40   42 1    
    79   40  106 1    
    80   41  107 1    
    81   41  108 1    
    82   41  109 1    
    83   42   43 2    
    84   42   44 am   BACKBONE|DICT|INTERRES
    85   44   45 1    
    86   44  110 1    
    87   45   46 1    
    88   45   47 1    
    89   45  111 1    
    90   46  112 1    
    91   46  113 1    
    92   46  114 1    
    93   47   48 2    
    94   47   49 am   BACKBONE|DICT|INTERRES
    95   49   50 1    
    96   49  115 1    
    97   50   51 1    
    98   50   52 1    
    99   50  116 1    
   100   51  117 1    
   101   51  118 1    
   102   51  119 1    
   103   52   53 2    
   104   52   54 am   BACKBONE|DICT|INTERRES
   105   54   55 1    
   106   54  120 1    
   107   55   56 1    
   108   55   57 1    
   109   55  121 1    
   110   56  122 1    
   111   56  123 1    
   112   56  124 1    
   113   57   58 2    
   114   57   59 am   BACKBONE|DICT|INTERRES
   115   59   60 1    
   116   59  125 1    
   117   60   61 1    
   118   60   62 1    
   119   60  126 1    
   120   61  127 1    
   121   61  128 1    
   122   61  129 1    
   123   62   63 2    
   124   62   64 am   BACKBONE|DICT|INTERRES
   125   64   65 1    
   126   64  130 1    
   127   65   66 1    
   128   65   69 1    
   129   65  131 1    
   130   66   67 am   BACKBONE|DICT|INTERRES
   131   66   68 2    
   132   67  132 1    
   133   67  133 1    
   134   69   70 1    
   135   69  134 1    
   136   69  135 1    
   137   70   71 1    
   138   71  136 1    
   139   71  137 1    
@<TRIPOS>SUBSTRUCTURE
     1 UNK         1 GROUP             0       ****    0 ROOT    
