@<TRIPOS>MOLECULE
3R137
137   139    1
SMALL
USER_CHARGES


@<TRIPOS>ATOM
      1 CA         31.6198    0.9786    0.0739 C.3       0 UNK        -0.2020 
      2 C          30.3682    0.4843   -0.6356 C.2       0 UNK         0.4855 
      3 O          29.9643    1.0720   -1.6379 O.2       0 UNK        -0.5197 
      4 N          29.7586   -0.5945   -0.1269 N.am      1 UNK        -0.4892 
      5 CA         28.5362   -1.1978   -0.6687 C.3       1 UNK         0.0835 
      6 C6         28.3243   -2.6300   -0.1104 C.3       12 UNK        -0.0855 
      7 S7         27.3978   -3.7067   -1.2641 S.3       12 UNK        -0.2931 
      8 C8         28.6428   -4.9627   -1.7055 C.3       12 UNK         0.0378 
      9 C9         29.4842   -4.5491   -2.9061 C.ar      12 UNK        -0.0802 
     10 C10        30.4725   -3.5674   -2.7791 C.ar      12 UNK        -0.0944 
     11 C11        31.2591   -3.2082   -3.8767 C.ar      12 UNK        -0.0787 
     12 C12        31.0697   -3.8520   -5.1028 C.ar      12 UNK        -0.0862 
     13 C13        30.0859   -4.8338   -5.2446 C.ar      12 UNK        -0.0733 
     14 C14        29.2927   -5.1742   -4.1436 C.ar      12 UNK        -0.0832 
     15 C15        29.8891   -5.5345   -6.5836 C.3       12 UNK         0.0240 
     16 S16        29.3510   -4.3966   -7.9014 S.3       12 UNK        -0.2522 
     17 C17        27.7439   -3.8367   -7.2579 C.3       12 UNK        -0.0967 
     18 CA         27.2058   -2.5631   -7.9570 C.3       5 UNK         0.0660 
     19 N          25.7607   -2.4601   -7.7365 N.am      5 UNK        -0.4015 
     20 C          24.9452   -1.5217   -8.2324 C.2       4 UNK         0.4946 
     21 O          25.2994   -0.6664   -9.0408 O.2       4 UNK        -0.5353 
     22 CA         23.5006   -1.4957   -7.6933 C.3       4 UNK         0.0277 
     23 CB         22.5634   -2.2493   -8.6501 C.3       4 UNK        -0.1981 
     24 N          23.3264   -2.0163   -6.3278 N.am      4 UNK        -0.4209 
     25 C          24.0072   -1.6230   -5.2404 C.2       3 UNK         0.4942 
     26 O          24.9319   -0.8077   -5.2754 O.2       3 UNK        -0.5208 
     27 CA         23.6317   -2.3151   -3.9160 C.3       3 UNK         0.0250 
     28 CB         24.0498   -3.7967   -3.9479 C.3       3 UNK        -0.1990 
     29 N          24.2601   -1.6931   -2.7477 N.am      3 UNK        -0.4232 
     30 C          24.0296   -0.4497   -2.2959 C.2       2 UNK         0.4993 
     31 O          23.1709    0.3036   -2.7565 O.2       2 UNK        -0.5286 
     32 CA         24.9070    0.0340   -1.1317 C.3       2 UNK         0.0209 
     33 CB         24.2134   -0.2832    0.2102 C.3       2 UNK        -0.1931 
     34 N          26.2378   -0.5781   -1.2049 N.am      2 UNK        -0.4546 
     35 C          27.2906   -0.3139   -0.4246 C.2       1 UNK         0.5154 
     36 O          27.2895    0.5338    0.4726 O.2       1 UNK        -0.5181 
     37 C          27.9657   -1.2889   -7.5080 C.2       5 UNK         0.5014 
     38 O          28.8460   -0.8070   -8.2264 O.2       5 UNK        -0.5248 
     39 N          27.5791   -0.7364   -6.3488 N.am      6 UNK        -0.4434 
     40 CA         28.1305    0.5033   -5.8058 C.3       6 UNK         0.0363 
     41 CB         27.8781    0.5654   -4.2936 C.3       6 UNK        -0.1936 
     42 C          27.5564    1.7402   -6.5088 C.2       6 UNK         0.5081 
     43 O          28.2940    2.7018   -6.7177 O.2       6 UNK        -0.5248 
     44 N          26.2765    1.6888   -6.9101 N.am      7 UNK        -0.4718 
     45 CA         25.6212    2.7368   -7.7058 C.3       7 UNK         0.0273 
     46 CB         24.1124    2.4636   -7.7978 C.3       7 UNK        -0.1935 
     47 C          26.2371    2.8850   -9.1101 C.2       7 UNK         0.5018 
     48 O          26.3709    4.0061   -9.6004 O.2       7 UNK        -0.5186 
     49 N          26.6517    1.7560   -9.7019 N.am      8 UNK        -0.4240 
     50 CA         27.4351    1.6739  -10.9377 C.3       8 UNK         0.0235 
     51 CB         27.3412    0.2396  -11.4864 C.3       8 UNK        -0.2000 
     52 C          28.9116    2.0909  -10.7708 C.2       8 UNK         0.4941 
     53 O          29.6195    2.1676  -11.7758 O.2       8 UNK        -0.5273 
     54 N          29.3520    2.3445   -9.5280 N.am      9 UNK        -0.4262 
     55 CA         30.6954    2.7636   -9.1178 C.3       9 UNK         0.0264 
     56 CB         31.0404    4.1564   -9.6878 C.3       9 UNK        -0.1955 
     57 C          31.7837    1.7109   -9.3966 C.2       9 UNK         0.5031 
     58 O          32.9318    2.0774   -9.6587 O.2       9 UNK        -0.5390 
     59 N          31.4327    0.4189   -9.2929 N.am      10 UNK        -0.4204 
     60 CA         32.3700   -0.6984   -9.4671 C.3       10 UNK         0.0237 
     61 CB         31.5815   -2.0097   -9.5776 C.3       10 UNK        -0.1985 
     62 C          33.4208   -0.8025   -8.3447 C.2       10 UNK         0.4970 
     63 O          34.4543   -1.4410   -8.5471 O.2       10 UNK        -0.4914 
     64 N          33.1431   -0.1768   -7.1937 N.am      11 UNK        -0.4285 
     65 CA         34.0315   -0.0975   -6.0251 C.3       11 UNK         0.1007 
     66 C          35.2973    0.7862   -6.2300 C.2       11 UNK         0.5703 
     67 N          35.3861    1.5951   -7.2806 N.am      11 UNK        -0.7361 
     68 O          36.2191    0.7317   -5.4194 O.2       11 UNK        -0.4986 
     69 C69        33.2666    0.3303   -4.7405 C.3       12 UNK        -0.0947 
     70 S70        31.7037   -0.5725   -4.4813 S.3       12 UNK        -0.2240 
     71 C71        32.3110   -2.1202   -3.7520 C.3       12 UNK         0.0194 
     72 H72        31.4738    2.0005    0.4229 H         1 UNK         0.0906 
     73 H73        32.4658    0.9703   -0.6131 H         1 UNK         0.0906 
     74 H74        31.8749    0.3591    0.9335 H         1 UNK         0.0906 
     75 H75        30.1093   -1.0020    0.7281 H         1 UNK         0.3140 
     76 H76        28.6873   -1.2696   -1.7474 H         1 UNK         0.1085 
     77 H77        27.8041   -2.6106    0.8498 H         1 UNK         0.0836 
     78 H78        29.2861   -3.0975    0.1028 H         1 UNK         0.0836 
     79 H79        29.2884   -5.1804   -0.8536 H         1 UNK         0.0731 
     80 H80        28.1181   -5.8949   -1.9204 H         1 UNK         0.0731 
     81 H81        30.6293   -3.0782   -1.8287 H         1 UNK         0.1312 
     82 H82        31.6776   -3.5755   -5.9538 H         1 UNK         0.1406 
     83 H83        28.5315   -5.9357   -4.2471 H         1 UNK         0.1631 
     84 H84        29.1637   -6.3451   -6.4983 H         1 UNK         0.0717 
     85 H85        30.8306   -5.9970   -6.8828 H         1 UNK         0.0717 
     86 H86        27.0515   -4.6677   -7.4044 H         1 UNK         0.0934 
     87 H87        27.8019   -3.6849   -6.1787 H         1 UNK         0.0934 
     88 H88        27.3505   -2.6658   -9.0346 H         1 UNK         0.0739 
     89 H89        25.3622   -3.1198   -7.0861 H         1 UNK         0.3093 
     90 H90        23.1870   -0.4518   -7.6689 H         1 UNK         0.0818 
     91 H91        22.6530   -1.8651   -9.6675 H         1 UNK         0.0819 
     92 H92        22.7911   -3.3155   -8.6835 H         1 UNK         0.0819 
     93 H93        21.5195   -2.1365   -8.3566 H         1 UNK         0.0819 
     94 H94        22.5945   -2.7022   -6.2072 H         1 UNK         0.3041 
     95 H95        22.5487   -2.2489   -3.7934 H         1 UNK         0.0784 
     96 H96        23.5636   -4.3346   -4.7626 H         1 UNK         0.0793 
     97 H97        25.1273   -3.9097   -4.0787 H         1 UNK         0.0793 
     98 H98        23.7727   -4.3061   -3.0244 H         1 UNK         0.0793 
     99 H99        24.9277   -2.2675   -2.2566 H         1 UNK         0.3024 
    100 H100       25.0216    1.1157   -1.2298 H         1 UNK         0.1171 
    101 H101       23.1930    0.1029    0.2235 H         1 UNK         0.0786 
    102 H102       24.1586   -1.3574    0.3907 H         1 UNK         0.0786 
    103 H103       24.7327    0.1716    1.0532 H         1 UNK         0.0786 
    104 H104       26.3631   -1.2602   -1.9393 H         1 UNK         0.2977 
    105 H105       26.7642   -1.1064   -5.8688 H         1 UNK         0.3127 
    106 H106       29.2109    0.5011   -5.9655 H         1 UNK         0.0770 
    107 H107       28.3241    1.4628   -3.8630 H         1 UNK         0.0814 
    108 H108       28.3300   -0.2893   -3.7933 H         1 UNK         0.0814 
    109 H109       26.8151    0.5818   -4.0526 H         1 UNK         0.0814 
    110 H110       25.7324    0.8672   -6.6785 H         1 UNK         0.2983 
    111 H111       25.7637    3.6839   -7.1804 H         1 UNK         0.0947 
    112 H112       23.8965    1.6009   -8.4268 H         1 UNK         0.0806 
    113 H113       23.5941    3.3165   -8.2380 H         1 UNK         0.0806 
    114 H114       23.6737    2.2886   -6.8152 H         1 UNK         0.0806 
    115 H115       26.4012    0.8695   -9.2693 H         1 UNK         0.3000 
    116 H116       26.9897    2.3515  -11.6689 H         1 UNK         0.0850 
    117 H117       27.8738    0.1436  -12.4334 H         1 UNK         0.0810 
    118 H118       26.3055   -0.0487  -11.6672 H         1 UNK         0.0810 
    119 H119       27.7726   -0.4841  -10.7936 H         1 UNK         0.0810 
    120 H120       28.6886    2.2606   -8.7666 H         1 UNK         0.3040 
    121 H121       30.6574    2.8621   -8.0323 H         1 UNK         0.0766 
    122 H122       31.1709    4.1310  -10.7700 H         1 UNK         0.0812 
    123 H123       31.9684    4.5362   -9.2587 H         1 UNK         0.0812 
    124 H124       30.2595    4.8820   -9.4599 H         1 UNK         0.0812 
    125 H125       30.4761    0.1760   -9.0477 H         1 UNK         0.3205 
    126 H126       32.9066   -0.5427  -10.4053 H         1 UNK         0.0754 
    127 H127       32.2408   -2.8480   -9.8063 H         1 UNK         0.0769 
    128 H128       30.8270   -1.9621  -10.3631 H         1 UNK         0.0769 
    129 H129       31.0773   -2.2391   -8.6396 H         1 UNK         0.0769 
    130 H130       32.2594    0.3001   -7.1065 H         1 UNK         0.2981 
    131 H131       34.4079   -1.1077   -5.8565 H         1 UNK         0.0541 
    132 H132       36.2134    2.1578   -7.4000 H         1 UNK         0.3459 
    133 H133       34.6390    1.6464   -7.9583 H         1 UNK         0.3459 
    134 H134       33.0196    1.3926   -4.7859 H         1 UNK         0.0612 
    135 H135       33.8946    0.2024   -3.8568 H         1 UNK         0.0612 
    136 H136       33.2217   -2.4411   -4.2588 H         1 UNK         0.0624 
    137 H137       32.5766   -1.9472   -2.7080 H         1 UNK         0.0624 
@<TRIPOS>BOND
     1    1    2 1    
     2    1   72 1    
     3    1   73 1    
     4    1   74 1    
     5    2    3 2    
     6    2    4 am   BACKBONE|DICT|INTERRES
     7    4    5 1    
     8    4   75 1    
     9    5    6 1    
    10    5   35 1    
    11    5   76 1    
    12    6    7 1    
    13    6   77 1    
    14    6   78 1    
    15    7    8 1    
    16    8    9 1    
    17    8   79 1    
    18    8   80 1    
    19    9   10 ar   
    20    9   14 ar   
    21   10   11 ar   
    22   10   81 1    
    23   11   12 ar   
    24   11   71 1    
    25   12   13 ar   
    26   12   82 1    
    27   13   14 ar   
    28   13   15 1    
    29   14   83 1    
    30   15   16 1    
    31   15   84 1    
    32   15   85 1    
    33   16   17 1    
    34   17   18 1    
    35   17   86 1    
    36   17   87 1    
    37   18   19 1    
    38   18   37 1    
    39   18   88 1    
    40   19   20 am   BACKBONE|DICT|INTERRES
    41   19   89 1    
    42   20   21 2    
    43   20   22 1    
    44   22   23 1    
    45   22   24 1    
    46   22   90 1    
    47   23   91 1    
    48   23   92 1    
    49   23   93 1    
    50   24   25 am   BACKBONE|DICT|INTERRES
    51   24   94 1    
    52   25   26 2    
    53   25   27 1    
    54   27   28 1    
    55   27   29 1    
    56   27   95 1    
    57   28   96 1    
    58   28   97 1    
    59   28   98 1    
    60   29   30 am   BACKBONE|DICT|INTERRES
    61   29   99 1    
    62   30   31 2    
    63   30   32 1    
    64   32   33 1    
    65   32   34 1    
    66   32  100 1    
    67   33  101 1    
    68   33  102 1    
    69   33  103 1    
    70   34   35 am   BACKBONE|DICT|INTERRES
    71   34  104 1    
    72   35   36 2    
    73   37   38 2    
    74   37   39 am   BACKBONE|DICT|INTERRES
    75   39   40 1    
    76   39  105 1    
    77   40   41 1    
    78   40   42 1    
    79   40  106 1    
    80   41  107 1    
    81   41  108 1    
    82   41  109 1    
    83   42   43 2    
    84   42   44 am   BACKBONE|DICT|INTERRES
    85   44   45 1    
    86   44  110 1    
    87   45   46 1    
    88   45   47 1    
    89   45  111 1    
    90   46  112 1    
    91   46  113 1    
    92   46  114 1    
    93   47   48 2    
    94   47   49 am   BACKBONE|DICT|INTERRES
    95   49   50 1    
    96   49  115 1    
    97   50   51 1    
    98   50   52 1    
    99   50  116 1    
   100   51  117 1    
   101   51  118 1    
   102   51  119 1    
   103   52   53 2    
   104   52   54 am   BACKBONE|DICT|INTERRES
   105   54   55 1    
   106   54  120 1    
   107   55   56 1    
   108   55   57 1    
   109   55  121 1    
   110   56  122 1    
   111   56  123 1    
   112   56  124 1    
   113   57   58 2    
   114   57   59 am   BACKBONE|DICT|INTERRES
   115   59   60 1    
   116   59  125 1    
   117   60   61 1    
   118   60   62 1    
   119   60  126 1    
   120   61  127 1    
   121   61  128 1    
   122   61  129 1    
   123   62   63 2    
   124   62   64 am   BACKBONE|DICT|INTERRES
   125   64   65 1    
   126   64  130 1    
   127   65   66 1    
   128   65   69 1    
   129   65  131 1    
   130   66   67 am   BACKBONE|DICT|INTERRES
   131   66   68 2    
   132   67  132 1    
   133   67  133 1    
   134   69   70 1    
   135   69  134 1    
   136   69  135 1    
   137   70   71 1    
   138   71  136 1    
   139   71  137 1    
@<TRIPOS>SUBSTRUCTURE
     1 UNK         1 GROUP             0       ****    0 ROOT    
