@<TRIPOS>MOLECULE
3R137
137   139    1
SMALL
USER_CHARGES


@<TRIPOS>ATOM
      1 CA         23.0881   -4.7448   -2.0082 C.3       0 UNK        -0.2020 
      2 C          24.3255   -4.0371   -1.4780 C.2       0 UNK         0.4855 
      3 O          24.2032   -3.0704   -0.7250 O.2       0 UNK        -0.5197 
      4 N          25.5195   -4.5062   -1.8644 N.am      1 UNK        -0.4892 
      5 CA         26.8009   -3.8736   -1.5350 C.3       1 UNK         0.0835 
      6 C6         27.9914   -4.8106   -1.8527 C.3       12 UNK        -0.0855 
      7 S7         29.5148   -4.3653   -0.9411 S.3       12 UNK        -0.2931 
      8 C8         30.7893   -5.3832   -1.7642 C.3       12 UNK         0.0378 
      9 C9         31.1815   -4.8092   -3.1186 C.ar      12 UNK        -0.0802 
     10 C10        32.2349   -3.8931   -3.2342 C.ar      12 UNK        -0.0944 
     11 C11        32.5519   -3.3135   -4.4703 C.ar      12 UNK        -0.0787 
     12 C12        31.7872   -3.6621   -5.5913 C.ar      12 UNK        -0.0862 
     13 C13        30.7149   -4.5479   -5.4781 C.ar      12 UNK        -0.0733 
     14 C14        30.4535   -5.1621   -4.2553 C.ar      12 UNK        -0.0832 
     15 C15        29.7566   -4.7423   -6.6406 C.3       12 UNK         0.0240 
     16 S16        28.1882   -3.8633   -6.3180 S.3       12 UNK        -0.2522 
     17 C17        28.7641   -2.1667   -5.9400 C.3       12 UNK        -0.0967 
     18 CA         27.8329   -1.1055   -6.5580 C.3       5 UNK         0.0660 
     19 N          26.5112   -1.0971   -5.9342 N.am      5 UNK        -0.4015 
     20 C          25.4123   -0.6002   -6.5157 C.2       4 UNK         0.4946 
     21 O          25.4349    0.0433   -7.5679 O.2       4 UNK        -0.5353 
     22 CA         24.0765   -0.8733   -5.8105 C.3       4 UNK         0.0277 
     23 CB         23.6660   -2.3450   -5.9872 C.3       4 UNK        -0.1981 
     24 N          24.1788   -0.5665   -4.3843 N.am      4 UNK        -0.4209 
     25 C          23.6648    0.5261   -3.8020 C.2       3 UNK         0.4942 
     26 O          22.9242    1.3274   -4.3735 O.2       3 UNK        -0.5208 
     27 CA         24.0603    0.7934   -2.3355 C.3       3 UNK         0.0250 
     28 CB         22.9832    0.2536   -1.3812 C.3       3 UNK        -0.1990 
     29 N          25.3684    0.2435   -1.9590 N.am      3 UNK        -0.4232 
     30 C          26.5301    0.5708   -2.5462 C.2       2 UNK         0.4993 
     31 O          26.6218    1.3965   -3.4505 O.2       2 UNK        -0.5286 
     32 CA         27.7966   -0.1899   -2.1175 C.3       2 UNK         0.0209 
     33 CB         28.5899    0.6220   -1.0823 C.3       2 UNK        -0.1931 
     34 N          27.5515   -1.5393   -1.5994 N.am      2 UNK        -0.4546 
     35 C          26.9299   -2.5207   -2.2668 C.2       1 UNK         0.5154 
     36 O          26.4582   -2.3823   -3.4018 O.2       1 UNK        -0.5181 
     37 C          28.5075    0.2743   -6.6655 C.2       5 UNK         0.5014 
     38 O          29.4405    0.3888   -7.4587 O.2       5 UNK        -0.5248 
     39 N          28.0422    1.3122   -5.9523 N.am      6 UNK        -0.4434 
     40 CA         28.4773    2.6970   -6.1927 C.3       6 UNK         0.0363 
     41 CB         27.9691    3.6249   -5.0796 C.3       6 UNK        -0.1936 
     42 C          28.0431    3.2260   -7.5714 C.2       6 UNK         0.5081 
     43 O          28.7327    4.0768   -8.1322 O.2       6 UNK        -0.5248 
     44 N          26.9321    2.6993   -8.1043 N.am      7 UNK        -0.4718 
     45 CA         26.4842    2.9521   -9.4708 C.3       7 UNK         0.0273 
     46 CB         24.9470    2.9600   -9.5199 C.3       7 UNK        -0.1935 
     47 C          27.0593    1.9027  -10.4323 C.2       7 UNK         0.5018 
     48 O          27.5878    2.2741  -11.4803 O.2       7 UNK        -0.5186 
     49 N          26.9348    0.6157  -10.0726 N.am      8 UNK        -0.4240 
     50 CA         27.2511   -0.5050  -10.9640 C.3       8 UNK         0.0235 
     51 CB         26.5403   -1.7778  -10.4733 C.3       8 UNK        -0.2000 
     52 C          28.7531   -0.7692  -11.1786 C.2       8 UNK         0.4941 
     53 O          29.1103   -1.2496  -12.2553 O.2       8 UNK        -0.5273 
     54 N          29.5994   -0.4897  -10.1765 N.am      9 UNK        -0.4262 
     55 CA         31.0293   -0.8288  -10.1876 C.3       9 UNK         0.0264 
     56 CB         31.2405   -2.1032   -9.3504 C.3       9 UNK        -0.1955 
     57 C          31.9348    0.3135   -9.6934 C.2       9 UNK         0.5031 
     58 O          33.1341    0.0888   -9.5245 O.2       9 UNK        -0.5390 
     59 N          31.3666    1.5027   -9.4482 N.am      10 UNK        -0.4204 
     60 CA         31.9839    2.7353   -8.9343 C.3       10 UNK         0.0237 
     61 CB         33.0892    3.2524   -9.8765 C.3       10 UNK        -0.1985 
     62 C          32.4865    2.6685   -7.4775 C.2       10 UNK         0.4970 
     63 O          32.3279    3.6536   -6.7559 O.2       10 UNK        -0.4914 
     64 N          33.0841    1.5440   -7.0640 N.am      11 UNK        -0.4285 
     65 CA         33.6196    1.3210   -5.7096 C.3       11 UNK         0.1007 
     66 C          32.5552    1.2112   -4.5795 C.2       11 UNK         0.5703 
     67 N          31.2871    0.9690   -4.8833 N.am      11 UNK        -0.7361 
     68 O          32.8898    1.3571   -3.4064 O.2       11 UNK        -0.4986 
     69 C69        34.6344    0.1458   -5.6695 C.3       12 UNK        -0.0947 
     70 S70        33.9187   -1.4615   -6.1542 S.3       12 UNK        -0.2240 
     71 C71        33.6782   -2.2756   -4.5301 C.3       12 UNK         0.0194 
     72 H72        22.5078   -4.0621   -2.6324 H         1 UNK         0.0906 
     73 H73        23.3437   -5.6219   -2.6073 H         1 UNK         0.0906 
     74 H74        22.4574   -5.0713   -1.1786 H         1 UNK         0.0906 
     75 H75        25.5629   -5.2797   -2.5124 H         1 UNK         0.3140 
     76 H76        26.7901   -3.6832   -0.4591 H         1 UNK         0.1085 
     77 H77        27.7453   -5.8374   -1.5767 H         1 UNK         0.0836 
     78 H78        28.1712   -4.8205   -2.9262 H         1 UNK         0.0836 
     79 H79        31.6674   -5.4356   -1.1187 H         1 UNK         0.0731 
     80 H80        30.4297   -6.4079   -1.8715 H         1 UNK         0.0731 
     81 H81        32.7939   -3.6106   -2.3524 H         1 UNK         0.1312 
     82 H82        31.9748   -3.2065   -6.5511 H         1 UNK         0.1406 
     83 H83        29.6310   -5.8595   -4.1798 H         1 UNK         0.1631 
     84 H84        29.5539   -5.8047   -6.7821 H         1 UNK         0.0717 
     85 H85        30.1902   -4.3806   -7.5738 H         1 UNK         0.0717 
     86 H86        28.8438   -2.0463   -4.8584 H         1 UNK         0.0934 
     87 H87        29.7731   -2.0454   -6.3318 H         1 UNK         0.0934 
     88 H88        27.6814   -1.4020   -7.5951 H         1 UNK         0.0739 
     89 H89        26.4295   -1.6258   -5.0679 H         1 UNK         0.3093 
     90 H90        23.3168   -0.2499   -6.2866 H         1 UNK         0.0818 
     91 H91        22.6873   -2.5359   -5.5466 H         1 UNK         0.0819 
     92 H92        23.6025   -2.6082   -7.0441 H         1 UNK         0.0819 
     93 H93        24.3791   -3.0276   -5.5223 H         1 UNK         0.0819 
     94 H94        24.7916   -1.1586   -3.8350 H         1 UNK         0.3041 
     95 H95        24.1167    1.8767   -2.2093 H         1 UNK         0.0784 
     96 H96        22.0099    0.6932   -1.6039 H         1 UNK         0.0793 
     97 H97        22.8769   -0.8286   -1.4640 H         1 UNK         0.0793 
     98 H98        23.2146    0.4910   -0.3427 H         1 UNK         0.0793 
     99 H99        25.3747   -0.4678   -1.2412 H         1 UNK         0.3024 
    100 H100       28.4157   -0.2968   -3.0105 H         1 UNK         0.1171 
    101 H101       28.8063    1.6247   -1.4549 H         1 UNK         0.0786 
    102 H102       29.5466    0.1505   -0.8560 H         1 UNK         0.0786 
    103 H103       28.0389    0.7334   -0.1477 H         1 UNK         0.0786 
    104 H104       27.9235   -1.7422   -0.6822 H         1 UNK         0.2977 
    105 H105       27.3153    1.1790   -5.2537 H         1 UNK         0.3127 
    106 H106       29.5681    2.7222   -6.1716 H         1 UNK         0.0770 
    107 H107       26.8803    3.6216   -5.0166 H         1 UNK         0.0814 
    108 H108       28.2837    4.6545   -5.2552 H         1 UNK         0.0814 
    109 H109       28.3657    3.3299   -4.1081 H         1 UNK         0.0814 
    110 H110       26.4331    1.9837   -7.5889 H         1 UNK         0.2983 
    111 H111       26.8313    3.9344   -9.8002 H         1 UNK         0.0947 
    112 H112       24.5913    3.1530  -10.5330 H         1 UNK         0.0806 
    113 H113       24.5364    3.7404   -8.8791 H         1 UNK         0.0806 
    114 H114       24.5200    2.0086   -9.2009 H         1 UNK         0.0806 
    115 H115       26.4531    0.3968   -9.2045 H         1 UNK         0.3000 
    116 H116       26.8328   -0.2637  -11.9442 H         1 UNK         0.0850 
    117 H117       26.6445   -2.5820  -11.2030 H         1 UNK         0.0810 
    118 H118       25.4726   -1.6094  -10.3299 H         1 UNK         0.0810 
    119 H119       26.9511   -2.1461   -9.5352 H         1 UNK         0.0810 
    120 H120       29.2457   -0.1168   -9.2996 H         1 UNK         0.3040 
    121 H121       31.3579   -1.0361  -11.2078 H         1 UNK         0.0766 
    122 H122       32.2811   -2.4294   -9.3776 H         1 UNK         0.0812 
    123 H123       30.6329   -2.9286   -9.7209 H         1 UNK         0.0812 
    124 H124       30.9797   -1.9327   -8.3071 H         1 UNK         0.0812 
    125 H125       30.3667    1.5583   -9.5770 H         1 UNK         0.3205 
    126 H126       31.1856    3.4780   -8.9450 H         1 UNK         0.0754 
    127 H127       33.4548    4.2260   -9.5473 H         1 UNK         0.0769 
    128 H128       32.7178    3.3732  -10.8941 H         1 UNK         0.0769 
    129 H129       33.9475    2.5807   -9.9095 H         1 UNK         0.0769 
    130 H130       33.1967    0.7879   -7.7332 H         1 UNK         0.2981 
    131 H131       34.1912    2.2185   -5.4653 H         1 UNK         0.0541 
    132 H132       31.0055    0.8419   -5.8446 H         1 UNK         0.3459 
    133 H133       30.6124    0.9181   -4.1396 H         1 UNK         0.3459 
    134 H134       35.0942    0.0628   -4.6830 H         1 UNK         0.0612 
    135 H135       35.4565    0.3570   -6.3548 H         1 UNK         0.0612 
    136 H136       34.6169   -2.7483   -4.2384 H         1 UNK         0.0624 
    137 H137       33.4687   -1.5120   -3.7801 H         1 UNK         0.0624 
@<TRIPOS>BOND
     1    1    2 1    
     2    1   72 1    
     3    1   73 1    
     4    1   74 1    
     5    2    3 2    
     6    2    4 am   BACKBONE|DICT|INTERRES
     7    4    5 1    
     8    4   75 1    
     9    5    6 1    
    10    5   35 1    
    11    5   76 1    
    12    6    7 1    
    13    6   77 1    
    14    6   78 1    
    15    7    8 1    
    16    8    9 1    
    17    8   79 1    
    18    8   80 1    
    19    9   10 ar   
    20    9   14 ar   
    21   10   11 ar   
    22   10   81 1    
    23   11   12 ar   
    24   11   71 1    
    25   12   13 ar   
    26   12   82 1    
    27   13   14 ar   
    28   13   15 1    
    29   14   83 1    
    30   15   16 1    
    31   15   84 1    
    32   15   85 1    
    33   16   17 1    
    34   17   18 1    
    35   17   86 1    
    36   17   87 1    
    37   18   19 1    
    38   18   37 1    
    39   18   88 1    
    40   19   20 am   BACKBONE|DICT|INTERRES
    41   19   89 1    
    42   20   21 2    
    43   20   22 1    
    44   22   23 1    
    45   22   24 1    
    46   22   90 1    
    47   23   91 1    
    48   23   92 1    
    49   23   93 1    
    50   24   25 am   BACKBONE|DICT|INTERRES
    51   24   94 1    
    52   25   26 2    
    53   25   27 1    
    54   27   28 1    
    55   27   29 1    
    56   27   95 1    
    57   28   96 1    
    58   28   97 1    
    59   28   98 1    
    60   29   30 am   BACKBONE|DICT|INTERRES
    61   29   99 1    
    62   30   31 2    
    63   30   32 1    
    64   32   33 1    
    65   32   34 1    
    66   32  100 1    
    67   33  101 1    
    68   33  102 1    
    69   33  103 1    
    70   34   35 am   BACKBONE|DICT|INTERRES
    71   34  104 1    
    72   35   36 2    
    73   37   38 2    
    74   37   39 am   BACKBONE|DICT|INTERRES
    75   39   40 1    
    76   39  105 1    
    77   40   41 1    
    78   40   42 1    
    79   40  106 1    
    80   41  107 1    
    81   41  108 1    
    82   41  109 1    
    83   42   43 2    
    84   42   44 am   BACKBONE|DICT|INTERRES
    85   44   45 1    
    86   44  110 1    
    87   45   46 1    
    88   45   47 1    
    89   45  111 1    
    90   46  112 1    
    91   46  113 1    
    92   46  114 1    
    93   47   48 2    
    94   47   49 am   BACKBONE|DICT|INTERRES
    95   49   50 1    
    96   49  115 1    
    97   50   51 1    
    98   50   52 1    
    99   50  116 1    
   100   51  117 1    
   101   51  118 1    
   102   51  119 1    
   103   52   53 2    
   104   52   54 am   BACKBONE|DICT|INTERRES
   105   54   55 1    
   106   54  120 1    
   107   55   56 1    
   108   55   57 1    
   109   55  121 1    
   110   56  122 1    
   111   56  123 1    
   112   56  124 1    
   113   57   58 2    
   114   57   59 am   BACKBONE|DICT|INTERRES
   115   59   60 1    
   116   59  125 1    
   117   60   61 1    
   118   60   62 1    
   119   60  126 1    
   120   61  127 1    
   121   61  128 1    
   122   61  129 1    
   123   62   63 2    
   124   62   64 am   BACKBONE|DICT|INTERRES
   125   64   65 1    
   126   64  130 1    
   127   65   66 1    
   128   65   69 1    
   129   65  131 1    
   130   66   67 am   BACKBONE|DICT|INTERRES
   131   66   68 2    
   132   67  132 1    
   133   67  133 1    
   134   69   70 1    
   135   69  134 1    
   136   69  135 1    
   137   70   71 1    
   138   71  136 1    
   139   71  137 1    
@<TRIPOS>SUBSTRUCTURE
     1 UNK         1 GROUP             0       ****    0 ROOT    
