@<TRIPOS>MOLECULE
3R137
137   139    1
SMALL
USER_CHARGES


@<TRIPOS>ATOM
      1 CA         27.6205   -4.9888    1.7024 C.3       0 UNK        -0.2020 
      2 C          27.5993   -3.4957    1.4116 C.2       0 UNK         0.4855 
      3 O          26.9839   -2.7348    2.1586 O.2       0 UNK        -0.5197 
      4 N          28.2693   -3.0717    0.3321 N.am      1 UNK        -0.4892 
      5 CA         28.3550   -1.6721   -0.1070 C.3       1 UNK         0.0835 
      6 C6         29.4678   -1.4600   -1.1608 C.3       12 UNK        -0.0855 
      7 S7         31.1463   -1.8771   -0.5748 S.3       12 UNK        -0.2931 
      8 C8         31.3955   -3.5876   -1.1626 C.3       12 UNK         0.0378 
      9 C9         31.1563   -3.7510   -2.6585 C.ar      12 UNK        -0.0802 
     10 C10        32.0834   -3.2601   -3.5826 C.ar      12 UNK        -0.0944 
     11 C11        31.8735   -3.4293   -4.9549 C.ar      12 UNK        -0.0787 
     12 C12        30.7211   -4.0860   -5.4021 C.ar      12 UNK        -0.0862 
     13 C13        29.7886   -4.5830   -4.4866 C.ar      12 UNK        -0.0733 
     14 C14        30.0143   -4.4153   -3.1179 C.ar      12 UNK        -0.0832 
     15 C15        28.5522   -5.3334   -4.9599 C.3       12 UNK         0.0240 
     16 S16        27.1362   -4.2172   -5.2085 S.3       12 UNK        -0.2522 
     17 C17        27.1372   -4.0213   -7.0254 C.3       12 UNK        -0.0967 
     18 CA         26.6239   -2.6548   -7.5475 C.3       5 UNK         0.0660 
     19 N          25.3297   -2.2622   -6.9894 N.am      5 UNK        -0.4015 
     20 C          24.2421   -1.9888   -7.7232 C.2       4 UNK         0.4946 
     21 O          24.1639   -2.1768   -8.9381 O.2       4 UNK        -0.5353 
     22 CA         23.0305   -1.3763   -6.9950 C.3       4 UNK         0.0277 
     23 CB         22.0478   -2.4805   -6.5721 C.3       4 UNK        -0.1981 
     24 N          23.3691   -0.5602   -5.8253 N.am      4 UNK        -0.4209 
     25 C          24.2037    0.4901   -5.8112 C.2       3 UNK         0.4942 
     26 O          24.7971    0.9147   -6.8015 O.2       3 UNK        -0.5208 
     27 CA         24.4765    1.1417   -4.4450 C.3       3 UNK         0.0250 
     28 CB         23.5206    2.3224   -4.2148 C.3       3 UNK        -0.1990 
     29 N          24.4012    0.2162   -3.3064 N.am      3 UNK        -0.4232 
     30 C          25.1339   -0.8984   -3.1692 C.2       2 UNK         0.4993 
     31 O          25.9149   -1.3154   -4.0282 O.2       2 UNK        -0.5286 
     32 CA         24.9248   -1.7124   -1.8839 C.3       2 UNK         0.0209 
     33 CB         24.1706   -3.0154   -2.1958 C.3       2 UNK        -0.1931 
     34 N          26.2027   -2.0368   -1.2500 N.am      2 UNK        -0.4546 
     35 C          27.0123   -1.1450   -0.6594 C.2       1 UNK         0.5154 
     36 O          26.7362    0.0496   -0.5378 O.2       1 UNK        -0.5181 
     37 C          27.6529   -1.5273   -7.3663 C.2       5 UNK         0.5014 
     38 O          28.3686   -1.2233   -8.3211 O.2       5 UNK        -0.5248 
     39 N          27.7089   -0.9112   -6.1761 N.am      6 UNK        -0.4434 
     40 CA         28.7459    0.0515   -5.8047 C.3       6 UNK         0.0363 
     41 CB         28.6518    0.3726   -4.3086 C.3       6 UNK        -0.1936 
     42 C          28.7476    1.3418   -6.6336 C.2       6 UNK         0.5081 
     43 O          29.8263    1.8093   -6.9951 O.2       6 UNK        -0.5248 
     44 N          27.5650    1.8933   -6.9390 N.am      7 UNK        -0.4718 
     45 CA         27.4413    3.0960   -7.7686 C.3       7 UNK         0.0273 
     46 CB         26.1252    3.8241   -7.4506 C.3       7 UNK        -0.1935 
     47 C          27.5351    2.7675   -9.2663 C.2       7 UNK         0.5018 
     48 O          27.9956    3.6090  -10.0373 O.2       7 UNK        -0.5186 
     49 N          27.1131    1.5533   -9.6475 N.am      8 UNK        -0.4240 
     50 CA         27.1607    1.0460  -11.0191 C.3       8 UNK         0.0235 
     51 CB         26.2791   -0.2084  -11.1379 C.3       8 UNK        -0.2000 
     52 C          28.5968    0.7586  -11.4843 C.2       8 UNK         0.4941 
     53 O          28.9776    1.1909  -12.5727 O.2       8 UNK        -0.5273 
     54 N          29.3689    0.0494  -10.6497 N.am      9 UNK        -0.4262 
     55 CA         30.7664   -0.3043  -10.9133 C.3       9 UNK         0.0264 
     56 CB         31.0696   -1.6546  -10.2443 C.3       9 UNK        -0.1955 
     57 C          31.7696    0.7778  -10.4683 C.2       9 UNK         0.5031 
     58 O          32.9504    0.6536  -10.7971 O.2       9 UNK        -0.5390 
     59 N          31.2958    1.8081   -9.7488 N.am      10 UNK        -0.4204 
     60 CA         32.0536    2.9339   -9.1847 C.3       10 UNK         0.0237 
     61 CB         32.6502    3.8192  -10.3001 C.3       10 UNK        -0.1985 
     62 C          33.0958    2.4672   -8.1497 C.2       10 UNK         0.4970 
     63 O          34.2831    2.7764   -8.2702 O.2       10 UNK        -0.4914 
     64 N          32.6163    1.7129   -7.1558 N.am      11 UNK        -0.4285 
     65 CA         33.4132    1.1203   -6.0697 C.3       11 UNK         0.1007 
     66 C          33.8044    2.1209   -4.9446 C.2       11 UNK         0.5703 
     67 N          33.2424    3.3234   -4.8952 N.am      11 UNK        -0.7361 
     68 O          34.6439    1.8027   -4.1057 O.2       11 UNK        -0.4986 
     69 C69        32.7227   -0.1382   -5.4797 C.3       12 UNK        -0.0947 
     70 S70        32.3828   -1.3928   -6.7603 S.3       12 UNK        -0.2240 
     71 C71        32.9061   -2.9352   -5.9569 C.3       12 UNK         0.0194 
     72 H72        26.6061   -5.3867    1.6938 H         1 UNK         0.0906 
     73 H73        28.2075   -5.5411    0.9688 H         1 UNK         0.0906 
     74 H74        28.0499   -5.1726    2.6869 H         1 UNK         0.0906 
     75 H75        28.7761   -3.7379   -0.2294 H         1 UNK         0.3140 
     76 H76        28.5973   -1.0639    0.7677 H         1 UNK         0.1085 
     77 H77        29.2394   -2.0109   -2.0722 H         1 UNK         0.0836 
     78 H78        29.5014   -0.4084   -1.4531 H         1 UNK         0.0836 
     79 H79        32.4189   -3.8871   -0.9319 H         1 UNK         0.0731 
     80 H80        30.7552   -4.2610   -0.5921 H         1 UNK         0.0731 
     81 H81        32.9711   -2.7526   -3.2303 H         1 UNK         0.1312 
     82 H82        30.5576   -4.2173   -6.4629 H         1 UNK         0.1406 
     83 H83        29.2963   -4.8082   -2.4117 H         1 UNK         0.1631 
     84 H84        28.7682   -5.8904   -5.8728 H         1 UNK         0.0717 
     85 H85        28.2717   -6.0827   -4.2181 H         1 UNK         0.0717 
     86 H86        28.1379   -4.2149   -7.4168 H         1 UNK         0.0934 
     87 H87        26.5090   -4.8143   -7.4339 H         1 UNK         0.0934 
     88 H88        26.5256   -2.7728   -8.6287 H         1 UNK         0.0739 
     89 H89        25.3106   -2.0795   -5.9930 H         1 UNK         0.3093 
     90 H90        22.5259   -0.7209   -7.7078 H         1 UNK         0.0818 
     91 H91        21.1333   -2.0609   -6.1526 H         1 UNK         0.0819 
     92 H92        21.7571   -3.0926   -7.4273 H         1 UNK         0.0819 
     93 H93        22.4856   -3.1476   -5.8282 H         1 UNK         0.0819 
     94 H94        22.9415   -0.8284   -4.9513 H         1 UNK         0.3041 
     95 H95        25.4937    1.5353   -4.4758 H         1 UNK         0.0784 
     96 H96        23.5765    3.0356   -5.0389 H         1 UNK         0.0793 
     97 H97        22.4832    1.9947   -4.1371 H         1 UNK         0.0793 
     98 H98        23.7718    2.8655   -3.3035 H         1 UNK         0.0793 
     99 H99        23.7778    0.4819   -2.5571 H         1 UNK         0.3024 
    100 H100       24.3337   -1.1266   -1.1763 H         1 UNK         0.1171 
    101 H101       23.9886   -3.5955   -1.2909 H         1 UNK         0.0786 
    102 H102       23.1996   -2.8078   -2.6472 H         1 UNK         0.0786 
    103 H103       24.7254   -3.6457   -2.8929 H         1 UNK         0.0786 
    104 H104       26.5191   -2.9916   -1.3275 H         1 UNK         0.2977 
    105 H105       27.0819   -1.2010   -5.4268 H         1 UNK         0.3127 
    106 H106       29.7008   -0.4457   -5.9779 H         1 UNK         0.0770 
    107 H107       27.7367    0.9101   -4.0622 H         1 UNK         0.0814 
    108 H108       29.4926    0.9874   -3.9848 H         1 UNK         0.0814 
    109 H109       28.6667   -0.5424   -3.7216 H         1 UNK         0.0814 
    110 H110       26.7015    1.4338   -6.6652 H         1 UNK         0.2983 
    111 H111       28.2614    3.7765   -7.5273 H         1 UNK         0.0947 
    112 H112       26.0866    4.7884   -7.9589 H         1 UNK         0.0806 
    113 H113       26.0223    4.0158   -6.3825 H         1 UNK         0.0806 
    114 H114       25.2541    3.2560   -7.7770 H         1 UNK         0.0806 
    115 H115       26.7622    0.9280   -8.9360 H         1 UNK         0.3000 
    116 H116       26.7456    1.8135  -11.6762 H         1 UNK         0.0850 
    117 H117       26.2745   -0.5854  -12.1615 H         1 UNK         0.0810 
    118 H118       25.2448    0.0054  -10.8674 H         1 UNK         0.0810 
    119 H119       26.6292   -1.0168  -10.4956 H         1 UNK         0.0810 
    120 H120       28.9683   -0.3093   -9.7825 H         1 UNK         0.3040 
    121 H121       30.9038   -0.4340  -11.9890 H         1 UNK         0.0766 
    122 H122       30.4560   -2.4503  -10.6665 H         1 UNK         0.0812 
    123 H123       30.8751   -1.6218   -9.1735 H         1 UNK         0.0812 
    124 H124       32.1132   -1.9415  -10.3803 H         1 UNK         0.0812 
    125 H125       30.3166    1.7813   -9.5007 H         1 UNK         0.3205 
    126 H126       31.3315    3.5435   -8.6391 H         1 UNK         0.0754 
    127 H127       33.1194    4.7097   -9.8803 H         1 UNK         0.0769 
    128 H128       31.8786    4.1552  -10.9928 H         1 UNK         0.0769 
    129 H129       33.4121    3.2932  -10.8763 H         1 UNK         0.0769 
    130 H130       31.6103    1.5619   -7.1092 H         1 UNK         0.2981 
    131 H131       34.3578    0.7909   -6.5069 H         1 UNK         0.0541 
    132 H132       32.5499    3.5901   -5.5760 H         1 UNK         0.3459 
    133 H133       33.5091    3.9643   -4.1649 H         1 UNK         0.3459 
    134 H134       31.7828    0.1291   -4.9954 H         1 UNK         0.0612 
    135 H135       33.3477   -0.5847   -4.7046 H         1 UNK         0.0612 
    136 H136       33.0499   -3.6946   -6.7268 H         1 UNK         0.0624 
    137 H137       33.8795   -2.7955   -5.4843 H         1 UNK         0.0624 
@<TRIPOS>BOND
     1    1    2 1    
     2    1   72 1    
     3    1   73 1    
     4    1   74 1    
     5    2    3 2    
     6    2    4 am   BACKBONE|DICT|INTERRES
     7    4    5 1    
     8    4   75 1    
     9    5    6 1    
    10    5   35 1    
    11    5   76 1    
    12    6    7 1    
    13    6   77 1    
    14    6   78 1    
    15    7    8 1    
    16    8    9 1    
    17    8   79 1    
    18    8   80 1    
    19    9   10 ar   
    20    9   14 ar   
    21   10   11 ar   
    22   10   81 1    
    23   11   12 ar   
    24   11   71 1    
    25   12   13 ar   
    26   12   82 1    
    27   13   14 ar   
    28   13   15 1    
    29   14   83 1    
    30   15   16 1    
    31   15   84 1    
    32   15   85 1    
    33   16   17 1    
    34   17   18 1    
    35   17   86 1    
    36   17   87 1    
    37   18   19 1    
    38   18   37 1    
    39   18   88 1    
    40   19   20 am   BACKBONE|DICT|INTERRES
    41   19   89 1    
    42   20   21 2    
    43   20   22 1    
    44   22   23 1    
    45   22   24 1    
    46   22   90 1    
    47   23   91 1    
    48   23   92 1    
    49   23   93 1    
    50   24   25 am   BACKBONE|DICT|INTERRES
    51   24   94 1    
    52   25   26 2    
    53   25   27 1    
    54   27   28 1    
    55   27   29 1    
    56   27   95 1    
    57   28   96 1    
    58   28   97 1    
    59   28   98 1    
    60   29   30 am   BACKBONE|DICT|INTERRES
    61   29   99 1    
    62   30   31 2    
    63   30   32 1    
    64   32   33 1    
    65   32   34 1    
    66   32  100 1    
    67   33  101 1    
    68   33  102 1    
    69   33  103 1    
    70   34   35 am   BACKBONE|DICT|INTERRES
    71   34  104 1    
    72   35   36 2    
    73   37   38 2    
    74   37   39 am   BACKBONE|DICT|INTERRES
    75   39   40 1    
    76   39  105 1    
    77   40   41 1    
    78   40   42 1    
    79   40  106 1    
    80   41  107 1    
    81   41  108 1    
    82   41  109 1    
    83   42   43 2    
    84   42   44 am   BACKBONE|DICT|INTERRES
    85   44   45 1    
    86   44  110 1    
    87   45   46 1    
    88   45   47 1    
    89   45  111 1    
    90   46  112 1    
    91   46  113 1    
    92   46  114 1    
    93   47   48 2    
    94   47   49 am   BACKBONE|DICT|INTERRES
    95   49   50 1    
    96   49  115 1    
    97   50   51 1    
    98   50   52 1    
    99   50  116 1    
   100   51  117 1    
   101   51  118 1    
   102   51  119 1    
   103   52   53 2    
   104   52   54 am   BACKBONE|DICT|INTERRES
   105   54   55 1    
   106   54  120 1    
   107   55   56 1    
   108   55   57 1    
   109   55  121 1    
   110   56  122 1    
   111   56  123 1    
   112   56  124 1    
   113   57   58 2    
   114   57   59 am   BACKBONE|DICT|INTERRES
   115   59   60 1    
   116   59  125 1    
   117   60   61 1    
   118   60   62 1    
   119   60  126 1    
   120   61  127 1    
   121   61  128 1    
   122   61  129 1    
   123   62   63 2    
   124   62   64 am   BACKBONE|DICT|INTERRES
   125   64   65 1    
   126   64  130 1    
   127   65   66 1    
   128   65   69 1    
   129   65  131 1    
   130   66   67 am   BACKBONE|DICT|INTERRES
   131   66   68 2    
   132   67  132 1    
   133   67  133 1    
   134   69   70 1    
   135   69  134 1    
   136   69  135 1    
   137   70   71 1    
   138   71  136 1    
   139   71  137 1    
@<TRIPOS>SUBSTRUCTURE
     1 UNK         1 GROUP             0       ****    0 ROOT    
