@<TRIPOS>MOLECULE
3R137
137   139    1
SMALL
USER_CHARGES


@<TRIPOS>ATOM
      1 CA         25.8383   -6.9358   -2.1506 C.3       0 UNK        -0.2020 
      2 C          25.9775   -5.9139   -1.0328 C.2       0 UNK         0.4855 
      3 O          25.2990   -6.0252   -0.0120 O.2       0 UNK        -0.5197 
      4 N          26.8473   -4.9132   -1.2202 N.am      1 UNK        -0.4892 
      5 CA         27.1532   -3.8637   -0.2321 C.3       1 UNK         0.0835 
      6 C6         28.5862   -3.3015   -0.4123 C.3       12 UNK        -0.0855 
      7 S7         29.8492   -4.6212   -0.3345 S.3       12 UNK        -0.2931 
      8 C8         31.2777   -3.8469   -1.1672 C.3       12 UNK         0.0378 
      9 C9         30.9868   -3.3616   -2.5852 C.ar      12 UNK        -0.0802 
     10 C10        31.4982   -2.1300   -3.0074 C.ar      12 UNK        -0.0944 
     11 C11        31.2488   -1.6480   -4.2955 C.ar      12 UNK        -0.0787 
     12 C12        30.4536   -2.4149   -5.1573 C.ar      12 UNK        -0.0862 
     13 C13        29.9278   -3.6437   -4.7522 C.ar      12 UNK        -0.0733 
     14 C14        30.2211   -4.1254   -3.4740 C.ar      12 UNK        -0.0832 
     15 C15        29.0550   -4.4448   -5.7111 C.3       12 UNK         0.0240 
     16 S16        27.4064   -4.8473   -5.0386 S.3       12 UNK        -0.2522 
     17 C17        26.7246   -3.2220   -4.5727 C.3       12 UNK        -0.0967 
     18 CA         26.2965   -2.3431   -5.7858 C.3       5 UNK         0.0660 
     19 N          24.9439   -1.8054   -5.6295 N.am      5 UNK        -0.4015 
     20 C          24.1670   -1.3720   -6.6331 C.2       4 UNK         0.4946 
     21 O          24.4533   -1.4964   -7.8239 O.2       4 UNK        -0.5353 
     22 CA         22.8503   -0.6667   -6.2530 C.3       4 UNK         0.0277 
     23 CB         21.6779   -1.6601   -6.2975 C.3       4 UNK        -0.1981 
     24 N          22.8888   -0.0248   -4.9355 N.am      4 UNK        -0.4209 
     25 C          23.6465    1.0372   -4.6231 C.2       3 UNK         0.4942 
     26 O          24.3426    1.6416   -5.4361 O.2       3 UNK        -0.5208 
     27 CA         23.6814    1.4567   -3.1412 C.3       3 UNK         0.0250 
     28 CB         22.5810    2.4887   -2.8486 C.3       3 UNK        -0.1990 
     29 N          23.5620    0.3308   -2.2055 N.am      3 UNK        -0.4232 
     30 C          24.3876   -0.7246   -2.1637 C.2       2 UNK         0.4993 
     31 O          25.3652   -0.8565   -2.9067 O.2       2 UNK        -0.5286 
     32 CA         23.9901   -1.8545   -1.2022 C.3       2 UNK         0.0209 
     33 CB         22.7460   -2.5914   -1.7306 C.3       2 UNK        -0.1931 
     34 N          25.0661   -2.8323   -1.0511 N.am      2 UNK        -0.4546 
     35 C          26.1033   -2.7269   -0.2114 C.2       1 UNK         0.5154 
     36 O          26.2451   -1.7842    0.5698 O.2       1 UNK        -0.5181 
     37 C          27.2700   -1.1716   -6.0056 C.2       5 UNK         0.5014 
     38 O          27.9919   -1.1518   -7.0020 O.2       5 UNK        -0.5248 
     39 N          27.2346   -0.1973   -5.0820 N.am      6 UNK        -0.4434 
     40 CA         28.1034    0.9853   -5.0476 C.3       6 UNK         0.0363 
     41 CB         27.8393    1.7624   -3.7493 C.3       6 UNK        -0.1936 
     42 C          27.9942    1.9176   -6.2707 C.2       6 UNK         0.5081 
     43 O          28.8964    2.7235   -6.4956 O.2       6 UNK        -0.5248 
     44 N          26.9061    1.7950   -7.0407 N.am      7 UNK        -0.4718 
     45 CA         26.6810    2.4775   -8.3151 C.3       7 UNK         0.0273 
     46 CB         25.1997    2.3225   -8.6998 C.3       7 UNK        -0.1935 
     47 C          27.5883    1.9931   -9.4653 C.2       7 UNK         0.5018 
     48 O          27.6261    2.6620  -10.4999 O.2       7 UNK        -0.5186 
     49 N          28.2747    0.8502   -9.3012 N.am      8 UNK        -0.4240 
     50 CA         29.2005    0.2859  -10.2879 C.3       8 UNK         0.0235 
     51 CB         29.6698   -1.0990   -9.8136 C.3       8 UNK        -0.2000 
     52 C          30.4114    1.1997  -10.5491 C.2       8 UNK         0.4941 
     53 O          30.9717    1.7652   -9.6089 O.2       8 UNK        -0.5273 
     54 N          30.8254    1.2886  -11.8207 N.am      9 UNK        -0.4262 
     55 CA         31.9162    2.1509  -12.2966 C.3       9 UNK         0.0264 
     56 CB         31.9449    2.1207  -13.8339 C.3       9 UNK        -0.1955 
     57 C          33.3083    1.8136  -11.7273 C.2       9 UNK         0.5031 
     58 O          34.1928    2.6702  -11.7588 O.2       9 UNK        -0.5390 
     59 N          33.4824    0.5850  -11.2230 N.am      10 UNK        -0.4204 
     60 CA         34.7013    0.1149  -10.5636 C.3       10 UNK         0.0237 
     61 CB         34.6700   -1.4214  -10.4978 C.3       10 UNK        -0.1985 
     62 C          34.9133    0.7055   -9.1561 C.2       10 UNK         0.4970 
     63 O          36.0479    0.6891   -8.6761 O.2       10 UNK        -0.4914 
     64 N          33.8416    1.1815   -8.5075 N.am      11 UNK        -0.4285 
     65 CA         33.8773    1.7443   -7.1499 C.3       11 UNK         0.1007 
     66 C          34.5483    3.1434   -7.1033 C.2       11 UNK         0.5703 
     67 N          35.2099    3.4756   -6.0026 N.am      11 UNK        -0.7361 
     68 O          34.4454    3.9428   -8.0322 O.2       11 UNK        -0.4986 
     69 C69        32.4664    1.7856   -6.5108 C.3       12 UNK        -0.0947 
     70 S70        31.6862    0.1397   -6.4601 S.3       12 UNK        -0.2240 
     71 C71        31.8470   -0.2953   -4.6946 C.3       12 UNK         0.0194 
     72 H72        24.8970   -6.7898   -2.6796 H         1 UNK         0.0906 
     73 H73        26.6519   -6.8623   -2.8717 H         1 UNK         0.0906 
     74 H74        25.8464   -7.9454   -1.7405 H         1 UNK         0.0906 
     75 H75        27.3881   -4.8775   -2.0728 H         1 UNK         0.3140 
     76 H76        27.1102   -4.3172    0.7610 H         1 UNK         0.1085 
     77 H77        28.8182   -2.5726    0.3667 H         1 UNK         0.0836 
     78 H78        28.6606   -2.7676   -1.3610 H         1 UNK         0.0836 
     79 H79        31.6259   -3.0211   -0.5446 H         1 UNK         0.0731 
     80 H80        32.0941   -4.5690   -1.2067 H         1 UNK         0.0731 
     81 H81        32.0990   -1.5398   -2.3285 H         1 UNK         0.1312 
     82 H82        30.2317   -2.0637   -6.1538 H         1 UNK         0.1406 
     83 H83        29.8304   -5.0849   -3.1641 H         1 UNK         0.1631 
     84 H84        29.5679   -5.3750   -5.9587 H         1 UNK         0.0717 
     85 H85        28.9218   -3.9110   -6.6535 H         1 UNK         0.0717 
     86 H86        25.8582   -3.4396   -3.9469 H         1 UNK         0.0934 
     87 H87        27.4228   -2.7162   -3.9019 H         1 UNK         0.0934 
     88 H88        26.3067   -2.9547   -6.6908 H         1 UNK         0.0739 
     89 H89        24.6686   -1.5946   -4.6784 H         1 UNK         0.3093 
     90 H90        22.6706    0.1107   -6.9992 H         1 UNK         0.0818 
     91 H91        20.7265   -1.1607   -6.1132 H         1 UNK         0.0819 
     92 H92        21.6069   -2.1351   -7.2772 H         1 UNK         0.0819 
     93 H93        21.7908   -2.4543   -5.5584 H         1 UNK         0.0819 
     94 H94        22.3307   -0.4444   -4.2067 H         1 UNK         0.3041 
     95 H95        24.6471    1.9300   -2.9578 H         1 UNK         0.0784 
     96 H96        22.6633    3.3462   -3.5183 H         1 UNK         0.0793 
     97 H97        21.5837    2.0672   -2.9802 H         1 UNK         0.0793 
     98 H98        22.6540    2.8694   -1.8296 H         1 UNK         0.0793 
     99 H99        22.7781    0.3595   -1.5687 H         1 UNK         0.3024 
    100 H100       23.7630   -1.4165   -0.2272 H         1 UNK         0.1171 
    101 H101       21.8857   -1.9247   -1.8007 H         1 UNK         0.0786 
    102 H102       22.4602   -3.4076   -1.0664 H         1 UNK         0.0786 
    103 H103       22.9144   -3.0139   -2.7223 H         1 UNK         0.0786 
    104 H104       25.0438   -3.6352   -1.6609 H         1 UNK         0.2977 
    105 H105       26.5962   -0.3091   -4.2979 H         1 UNK         0.3127 
    106 H106       29.1292    0.6193   -5.0206 H         1 UNK         0.0770 
    107 H107       26.8348    2.1844   -3.7361 H         1 UNK         0.0814 
    108 H108       28.5411    2.5906   -3.6426 H         1 UNK         0.0814 
    109 H109       27.9519    1.1260   -2.8712 H         1 UNK         0.0814 
    110 H110       26.1721    1.1758   -6.7219 H         1 UNK         0.2983 
    111 H111       26.8898    3.5394   -8.1694 H         1 UNK         0.0947 
    112 H112       24.9814    2.8309   -9.6399 H         1 UNK         0.0806 
    113 H113       24.5459    2.7546   -7.9421 H         1 UNK         0.0806 
    114 H114       24.9239    1.2741   -8.8227 H         1 UNK         0.0806 
    115 H115       28.1929    0.3527   -8.4200 H         1 UNK         0.3000 
    116 H116       28.6462    0.1621  -11.2205 H         1 UNK         0.0850 
    117 H117       30.3381   -1.5614  -10.5408 H         1 UNK         0.0810 
    118 H118       28.8269   -1.7759   -9.6719 H         1 UNK         0.0810 
    119 H119       30.2074   -1.0372   -8.8666 H         1 UNK         0.0810 
    120 H120       30.3204    0.7762  -12.5303 H         1 UNK         0.3040 
    121 H121       31.6849    3.1704  -11.9806 H         1 UNK         0.0766 
    122 H122       32.7239    2.7778  -14.2236 H         1 UNK         0.0812 
    123 H123       30.9991    2.4601  -14.2567 H         1 UNK         0.0812 
    124 H124       32.1448    1.1183  -14.2147 H         1 UNK         0.0812 
    125 H125       32.7010   -0.0530  -11.2504 H         1 UNK         0.3205 
    126 H126       35.5565    0.4131  -11.1741 H         1 UNK         0.0754 
    127 H127       35.5816   -1.8115  -10.0425 H         1 UNK         0.0769 
    128 H128       34.5945   -1.8608  -11.4928 H         1 UNK         0.0769 
    129 H129       33.8293   -1.7833   -9.9042 H         1 UNK         0.0769 
    130 H130       32.9405    1.2135   -8.9700 H         1 UNK         0.2981 
    131 H131       34.4879    1.0727   -6.5426 H         1 UNK         0.0541 
    132 H132       35.2934    2.8343   -5.2293 H         1 UNK         0.3459 
    133 H133       35.6408    4.3853   -5.9469 H         1 UNK         0.3459 
    134 H134       31.8099    2.4509   -7.0749 H         1 UNK         0.0612 
    135 H135       32.5106    2.1916   -5.4988 H         1 UNK         0.0612 
    136 H136       32.9077   -0.2871   -4.4393 H         1 UNK         0.0624 
    137 H137       31.3738    0.4841   -4.0961 H         1 UNK         0.0624 
@<TRIPOS>BOND
     1    1    2 1    
     2    1   72 1    
     3    1   73 1    
     4    1   74 1    
     5    2    3 2    
     6    2    4 am   BACKBONE|DICT|INTERRES
     7    4    5 1    
     8    4   75 1    
     9    5    6 1    
    10    5   35 1    
    11    5   76 1    
    12    6    7 1    
    13    6   77 1    
    14    6   78 1    
    15    7    8 1    
    16    8    9 1    
    17    8   79 1    
    18    8   80 1    
    19    9   10 ar   
    20    9   14 ar   
    21   10   11 ar   
    22   10   81 1    
    23   11   12 ar   
    24   11   71 1    
    25   12   13 ar   
    26   12   82 1    
    27   13   14 ar   
    28   13   15 1    
    29   14   83 1    
    30   15   16 1    
    31   15   84 1    
    32   15   85 1    
    33   16   17 1    
    34   17   18 1    
    35   17   86 1    
    36   17   87 1    
    37   18   19 1    
    38   18   37 1    
    39   18   88 1    
    40   19   20 am   BACKBONE|DICT|INTERRES
    41   19   89 1    
    42   20   21 2    
    43   20   22 1    
    44   22   23 1    
    45   22   24 1    
    46   22   90 1    
    47   23   91 1    
    48   23   92 1    
    49   23   93 1    
    50   24   25 am   BACKBONE|DICT|INTERRES
    51   24   94 1    
    52   25   26 2    
    53   25   27 1    
    54   27   28 1    
    55   27   29 1    
    56   27   95 1    
    57   28   96 1    
    58   28   97 1    
    59   28   98 1    
    60   29   30 am   BACKBONE|DICT|INTERRES
    61   29   99 1    
    62   30   31 2    
    63   30   32 1    
    64   32   33 1    
    65   32   34 1    
    66   32  100 1    
    67   33  101 1    
    68   33  102 1    
    69   33  103 1    
    70   34   35 am   BACKBONE|DICT|INTERRES
    71   34  104 1    
    72   35   36 2    
    73   37   38 2    
    74   37   39 am   BACKBONE|DICT|INTERRES
    75   39   40 1    
    76   39  105 1    
    77   40   41 1    
    78   40   42 1    
    79   40  106 1    
    80   41  107 1    
    81   41  108 1    
    82   41  109 1    
    83   42   43 2    
    84   42   44 am   BACKBONE|DICT|INTERRES
    85   44   45 1    
    86   44  110 1    
    87   45   46 1    
    88   45   47 1    
    89   45  111 1    
    90   46  112 1    
    91   46  113 1    
    92   46  114 1    
    93   47   48 2    
    94   47   49 am   BACKBONE|DICT|INTERRES
    95   49   50 1    
    96   49  115 1    
    97   50   51 1    
    98   50   52 1    
    99   50  116 1    
   100   51  117 1    
   101   51  118 1    
   102   51  119 1    
   103   52   53 2    
   104   52   54 am   BACKBONE|DICT|INTERRES
   105   54   55 1    
   106   54  120 1    
   107   55   56 1    
   108   55   57 1    
   109   55  121 1    
   110   56  122 1    
   111   56  123 1    
   112   56  124 1    
   113   57   58 2    
   114   57   59 am   BACKBONE|DICT|INTERRES
   115   59   60 1    
   116   59  125 1    
   117   60   61 1    
   118   60   62 1    
   119   60  126 1    
   120   61  127 1    
   121   61  128 1    
   122   61  129 1    
   123   62   63 2    
   124   62   64 am   BACKBONE|DICT|INTERRES
   125   64   65 1    
   126   64  130 1    
   127   65   66 1    
   128   65   69 1    
   129   65  131 1    
   130   66   67 am   BACKBONE|DICT|INTERRES
   131   66   68 2    
   132   67  132 1    
   133   67  133 1    
   134   69   70 1    
   135   69  134 1    
   136   69  135 1    
   137   70   71 1    
   138   71  136 1    
   139   71  137 1    
@<TRIPOS>SUBSTRUCTURE
     1 UNK         1 GROUP             0       ****    0 ROOT    
