@<TRIPOS>MOLECULE
3R137
137   139    1
SMALL
USER_CHARGES


@<TRIPOS>ATOM
      1 CA         27.4122   -6.6531   -6.5369 C.3       0 UNK        -0.2020 
      2 C          27.2599   -6.4562   -5.0356 C.2       0 UNK         0.4855 
      3 O          26.9568   -7.4098   -4.3184 O.2       0 UNK        -0.5197 
      4 N          27.4674   -5.2271   -4.5561 N.am      1 UNK        -0.4892 
      5 CA         27.3545   -4.8256   -3.1572 C.3       1 UNK         0.0835 
      6 C6         28.6751   -5.0963   -2.3904 C.3       12 UNK        -0.0855 
      7 S7         28.5553   -4.7626   -0.5980 S.3       12 UNK        -0.2931 
      8 C8         30.2997   -4.5103   -0.1354 C.3       12 UNK         0.0378 
      9 C9         30.9743   -3.3676   -0.8884 C.ar      12 UNK        -0.0802 
     10 C10        32.1083   -3.6253   -1.6654 C.ar      12 UNK        -0.0944 
     11 C11        32.7776   -2.5852   -2.3156 C.ar      12 UNK        -0.0787 
     12 C12        32.3040   -1.2783   -2.1840 C.ar      12 UNK        -0.0862 
     13 C13        31.1493   -1.0070   -1.4441 C.ar      12 UNK        -0.0733 
     14 C14        30.4933   -2.0562   -0.7886 C.ar      12 UNK        -0.0832 
     15 C15        30.6309    0.4233   -1.3361 C.3       12 UNK         0.0240 
     16 S16        30.4228    1.2273   -2.9626 S.3       12 UNK        -0.2522 
     17 C17        28.9978    0.3065   -3.6232 C.3       12 UNK        -0.0967 
     18 CA         28.6598    0.6559   -5.0946 C.3       5 UNK         0.0660 
     19 N          27.7642   -0.3425   -5.6809 N.am      5 UNK        -0.4015 
     20 C          27.3822   -0.3998   -6.9637 C.2       4 UNK         0.4946 
     21 O          27.8264    0.3261   -7.8516 O.2       4 UNK        -0.5353 
     22 CA         26.2873   -1.4183   -7.3167 C.3       4 UNK         0.0277 
     23 CB         26.8968   -2.7866   -7.6548 C.3       4 UNK        -0.1981 
     24 N          25.2969   -1.5604   -6.2472 N.am      4 UNK        -0.4209 
     25 C          24.4031   -0.6155   -5.9207 C.2       3 UNK         0.4942 
     26 O          24.2982    0.4613   -6.5073 O.2       3 UNK        -0.5208 
     27 CA         23.5069   -0.9059   -4.7057 C.3       3 UNK         0.0250 
     28 CB         22.3694   -1.8690   -5.0815 C.3       3 UNK        -0.1990 
     29 N          24.2580   -1.4434   -3.5674 N.am      3 UNK        -0.4232 
     30 C          25.1966   -0.7598   -2.8979 C.2       2 UNK         0.4993 
     31 O          25.5111    0.4015   -3.1536 O.2       2 UNK        -0.5286 
     32 CA         25.9461   -1.5048   -1.7827 C.3       2 UNK         0.0209 
     33 CB         25.1602   -1.4334   -0.4642 C.3       2 UNK        -0.1931 
     34 N          26.2718   -2.9031   -2.0838 N.am      2 UNK        -0.4546 
     35 C          26.9590   -3.3385   -3.1494 C.2       1 UNK         0.5154 
     36 O          27.2876   -2.6194   -4.0979 O.2       1 UNK        -0.5181 
     37 C          28.0829    2.0798   -5.2465 C.2       5 UNK         0.5014 
     38 O          28.7625    2.9545   -5.7851 O.2       5 UNK        -0.5248 
     39 N          26.8255    2.2758   -4.8183 N.am      6 UNK        -0.4434 
     40 CA         26.0901    3.5405   -4.9224 C.3       6 UNK         0.0363 
     41 CB         24.7496    3.4192   -4.1806 C.3       6 UNK        -0.1936 
     42 C          25.8628    4.0008   -6.3724 C.2       6 UNK         0.5081 
     43 O          25.9619    5.1963   -6.6494 O.2       6 UNK        -0.5248 
     44 N          25.5878    3.0492   -7.2746 N.am      7 UNK        -0.4718 
     45 CA         25.4421    3.2868   -8.7138 C.3       7 UNK         0.0273 
     46 CB         24.7199    2.0837   -9.3432 C.3       7 UNK        -0.1935 
     47 C          26.7758    3.5401   -9.4434 C.2       7 UNK         0.5018 
     48 O          26.7435    3.9774  -10.5943 O.2       7 UNK        -0.5186 
     49 N          27.9072    3.2280   -8.7907 N.am      8 UNK        -0.4240 
     50 CA         29.2731    3.1959   -9.3310 C.3       8 UNK         0.0235 
     51 CB         29.7562    4.6098   -9.7177 C.3       8 UNK        -0.2000 
     52 C          29.4393    2.1647  -10.4676 C.2       8 UNK         0.4941 
     53 O          30.2401    2.3714  -11.3813 O.2       8 UNK        -0.5273 
     54 N          28.6766    1.0677  -10.3827 N.am      9 UNK        -0.4262 
     55 CA         28.7078   -0.0685  -11.3022 C.3       9 UNK         0.0264 
     56 CB         27.3020   -0.6866  -11.3762 C.3       9 UNK        -0.1955 
     57 C          29.7387   -1.1236  -10.8694 C.2       9 UNK         0.5031 
     58 O          30.2017   -1.8903  -11.7152 O.2       9 UNK        -0.5390 
     59 N          30.0862   -1.1415   -9.5775 N.am      10 UNK        -0.4204 
     60 CA         31.1395   -1.9611   -8.9891 C.3       10 UNK         0.0237 
     61 CB         30.5144   -3.1716   -8.2740 C.3       10 UNK        -0.1985 
     62 C          31.9191   -1.0943   -7.9967 C.2       10 UNK         0.4970 
     63 O          31.3559   -0.1388   -7.4567 O.2       10 UNK        -0.4914 
     64 N          33.1821   -1.4678   -7.7586 N.am      11 UNK        -0.4285 
     65 CA         34.1027   -0.8279   -6.8033 C.3       11 UNK         0.1007 
     66 C          34.3974    0.6683   -7.1414 C.2       11 UNK         0.5703 
     67 N          34.7701    1.4943   -6.1719 N.am      11 UNK        -0.7361 
     68 O          34.3547    1.0779   -8.3006 O.2       11 UNK        -0.4986 
     69 C69        33.6834   -1.0912   -5.3257 C.3       12 UNK        -0.0947 
     70 S70        33.6384   -2.8750   -4.9317 S.3       12 UNK        -0.2240 
     71 C71        34.0167   -2.8729   -3.1507 C.3       12 UNK         0.0194 
     72 H72        28.0990   -7.4746   -6.7395 H         1 UNK         0.0906 
     73 H73        26.4485   -6.8970   -6.9831 H         1 UNK         0.0906 
     74 H74        27.8005   -5.7620   -7.0295 H         1 UNK         0.0906 
     75 H75        27.6799   -4.4530   -5.1725 H         1 UNK         0.3140 
     76 H76        26.5437   -5.3926   -2.6936 H         1 UNK         0.1085 
     77 H77        29.4846   -4.5096   -2.8279 H         1 UNK         0.0836 
     78 H78        28.9655   -6.1413   -2.5093 H         1 UNK         0.0836 
     79 H79        30.8372   -5.4475   -0.2888 H         1 UNK         0.0731 
     80 H80        30.3509   -4.3033    0.9343 H         1 UNK         0.0731 
     81 H81        32.4802   -4.6370   -1.7552 H         1 UNK         0.1312 
     82 H82        32.8241   -0.4679   -2.6746 H         1 UNK         0.1406 
     83 H83        29.6114   -1.8574   -0.1946 H         1 UNK         0.1631 
     84 H84        31.3393    1.0064   -0.7464 H         1 UNK         0.0717 
     85 H85        29.6814    0.4567   -0.7995 H         1 UNK         0.0717 
     86 H86        29.2324   -0.7567   -3.5454 H         1 UNK         0.0934 
     87 H87        28.1422    0.4787   -2.9711 H         1 UNK         0.0934 
     88 H88        29.5857    0.6166   -5.6707 H         1 UNK         0.0739 
     89 H89        27.4051   -1.0512   -5.0453 H         1 UNK         0.3093 
     90 H90        25.7681   -1.0518   -8.2044 H         1 UNK         0.0818 
     91 H91        27.4727   -3.1889   -6.8223 H         1 UNK         0.0819 
     92 H92        26.1268   -3.5124   -7.9166 H         1 UNK         0.0819 
     93 H93        27.5685   -2.7087   -8.5104 H         1 UNK         0.0819 
     94 H94        25.3519   -2.3916   -5.6771 H         1 UNK         0.3041 
     95 H95        23.0609    0.0411   -4.3936 H         1 UNK         0.0784 
     96 H96        21.7917   -1.4795   -5.9211 H         1 UNK         0.0793 
     97 H97        22.7449   -2.8509   -5.3719 H         1 UNK         0.0793 
     98 H98        21.6767   -2.0067   -4.2510 H         1 UNK         0.0793 
     99 H99        24.0643   -2.3944   -3.2891 H         1 UNK         0.3024 
    100 H100       26.8945   -0.9862   -1.6325 H         1 UNK         0.1171 
    101 H101       25.7366   -1.8463    0.3642 H         1 UNK         0.0786 
    102 H102       24.9226   -0.4002   -0.2063 H         1 UNK         0.0786 
    103 H103       24.2182   -1.9798   -0.5238 H         1 UNK         0.0786 
    104 H104       26.0673   -3.5701   -1.3527 H         1 UNK         0.2977 
    105 H105       26.3387    1.5122   -4.3497 H         1 UNK         0.3127 
    106 H106       26.6868    4.3076   -4.4246 H         1 UNK         0.0770 
    107 H107       24.1242    2.6334   -4.6064 H         1 UNK         0.0814 
    108 H108       24.1864    4.3518   -4.2335 H         1 UNK         0.0814 
    109 H109       24.9000    3.1903   -3.1255 H         1 UNK         0.0814 
    110 H110       25.4440    2.0966   -6.9523 H         1 UNK         0.2983 
    111 H111       24.8207    4.1736   -8.8562 H         1 UNK         0.0947 
    112 H112       24.5541    2.2382  -10.4102 H         1 UNK         0.0806 
    113 H113       23.7443    1.9214   -8.8845 H         1 UNK         0.0806 
    114 H114       25.2987    1.1662   -9.2327 H         1 UNK         0.0806 
    115 H115       27.8163    2.8740   -7.8452 H         1 UNK         0.3000 
    116 H116       29.9061    2.8431   -8.5147 H         1 UNK         0.0850 
    117 H117       30.8160    4.6028   -9.9750 H         1 UNK         0.0810 
    118 H118       29.6286    5.3107   -8.8927 H         1 UNK         0.0810 
    119 H119       29.2163    5.0022  -10.5797 H         1 UNK         0.0810 
    120 H120       28.1193    0.9494   -9.5377 H         1 UNK         0.3040 
    121 H121       28.9830    0.2806  -12.2997 H         1 UNK         0.0766 
    122 H122       26.5673    0.0417  -11.7200 H         1 UNK         0.0812 
    123 H123       26.9735   -1.0613  -10.4067 H         1 UNK         0.0812 
    124 H124       27.2805   -1.5242  -12.0747 H         1 UNK         0.0812 
    125 H125       29.6939   -0.4460   -8.9511 H         1 UNK         0.3205 
    126 H126       31.8254   -2.3064   -9.7659 H         1 UNK         0.0754 
    127 H127       31.2862   -3.8272   -7.8687 H         1 UNK         0.0769 
    128 H128       29.9075   -3.7673   -8.9560 H         1 UNK         0.0769 
    129 H129       29.8833   -2.8618   -7.4403 H         1 UNK         0.0769 
    130 H130       33.5611   -2.2560   -8.2621 H         1 UNK         0.2981 
    131 H131       35.0616   -1.3238   -6.9574 H         1 UNK         0.0541 
    132 H132       34.8369    1.1828   -5.2166 H         1 UNK         0.3459 
    133 H133       34.9817    2.4522   -6.4029 H         1 UNK         0.3459 
    134 H134       34.3877   -0.6191   -4.6406 H         1 UNK         0.0612 
    135 H135       32.7045   -0.6568   -5.1159 H         1 UNK         0.0612 
    136 H136       34.8001   -2.1471   -2.9285 H         1 UNK         0.0624 
    137 H137       34.4280   -3.8483   -2.8869 H         1 UNK         0.0624 
@<TRIPOS>BOND
     1    1    2 1    
     2    1   72 1    
     3    1   73 1    
     4    1   74 1    
     5    2    3 2    
     6    2    4 am   BACKBONE|DICT|INTERRES
     7    4    5 1    
     8    4   75 1    
     9    5    6 1    
    10    5   35 1    
    11    5   76 1    
    12    6    7 1    
    13    6   77 1    
    14    6   78 1    
    15    7    8 1    
    16    8    9 1    
    17    8   79 1    
    18    8   80 1    
    19    9   10 ar   
    20    9   14 ar   
    21   10   11 ar   
    22   10   81 1    
    23   11   12 ar   
    24   11   71 1    
    25   12   13 ar   
    26   12   82 1    
    27   13   14 ar   
    28   13   15 1    
    29   14   83 1    
    30   15   16 1    
    31   15   84 1    
    32   15   85 1    
    33   16   17 1    
    34   17   18 1    
    35   17   86 1    
    36   17   87 1    
    37   18   19 1    
    38   18   37 1    
    39   18   88 1    
    40   19   20 am   BACKBONE|DICT|INTERRES
    41   19   89 1    
    42   20   21 2    
    43   20   22 1    
    44   22   23 1    
    45   22   24 1    
    46   22   90 1    
    47   23   91 1    
    48   23   92 1    
    49   23   93 1    
    50   24   25 am   BACKBONE|DICT|INTERRES
    51   24   94 1    
    52   25   26 2    
    53   25   27 1    
    54   27   28 1    
    55   27   29 1    
    56   27   95 1    
    57   28   96 1    
    58   28   97 1    
    59   28   98 1    
    60   29   30 am   BACKBONE|DICT|INTERRES
    61   29   99 1    
    62   30   31 2    
    63   30   32 1    
    64   32   33 1    
    65   32   34 1    
    66   32  100 1    
    67   33  101 1    
    68   33  102 1    
    69   33  103 1    
    70   34   35 am   BACKBONE|DICT|INTERRES
    71   34  104 1    
    72   35   36 2    
    73   37   38 2    
    74   37   39 am   BACKBONE|DICT|INTERRES
    75   39   40 1    
    76   39  105 1    
    77   40   41 1    
    78   40   42 1    
    79   40  106 1    
    80   41  107 1    
    81   41  108 1    
    82   41  109 1    
    83   42   43 2    
    84   42   44 am   BACKBONE|DICT|INTERRES
    85   44   45 1    
    86   44  110 1    
    87   45   46 1    
    88   45   47 1    
    89   45  111 1    
    90   46  112 1    
    91   46  113 1    
    92   46  114 1    
    93   47   48 2    
    94   47   49 am   BACKBONE|DICT|INTERRES
    95   49   50 1    
    96   49  115 1    
    97   50   51 1    
    98   50   52 1    
    99   50  116 1    
   100   51  117 1    
   101   51  118 1    
   102   51  119 1    
   103   52   53 2    
   104   52   54 am   BACKBONE|DICT|INTERRES
   105   54   55 1    
   106   54  120 1    
   107   55   56 1    
   108   55   57 1    
   109   55  121 1    
   110   56  122 1    
   111   56  123 1    
   112   56  124 1    
   113   57   58 2    
   114   57   59 am   BACKBONE|DICT|INTERRES
   115   59   60 1    
   116   59  125 1    
   117   60   61 1    
   118   60   62 1    
   119   60  126 1    
   120   61  127 1    
   121   61  128 1    
   122   61  129 1    
   123   62   63 2    
   124   62   64 am   BACKBONE|DICT|INTERRES
   125   64   65 1    
   126   64  130 1    
   127   65   66 1    
   128   65   69 1    
   129   65  131 1    
   130   66   67 am   BACKBONE|DICT|INTERRES
   131   66   68 2    
   132   67  132 1    
   133   67  133 1    
   134   69   70 1    
   135   69  134 1    
   136   69  135 1    
   137   70   71 1    
   138   71  136 1    
   139   71  137 1    
@<TRIPOS>SUBSTRUCTURE
     1 UNK         1 GROUP             0       ****    0 ROOT    
