@<TRIPOS>MOLECULE
3R137
137   139    1
SMALL
USER_CHARGES


@<TRIPOS>ATOM
      1 CA         22.9904   -3.3932   -0.6967 C.3       0 UNK        -0.2020 
      2 C          24.4721   -3.0617   -0.6100 C.2       0 UNK         0.4855 
      3 O          24.8338   -1.9599   -0.1949 O.2       0 UNK        -0.5197 
      4 N          25.3336   -4.0127   -0.9937 N.am      1 UNK        -0.4892 
      5 CA         26.7925   -3.8659   -0.9749 C.3       1 UNK         0.0835 
      6 C6         27.5042   -5.2361   -1.0972 C.3       12 UNK        -0.0855 
      7 S7         29.2050   -5.1947   -0.4255 S.3       12 UNK        -0.2931 
      8 C8         30.1636   -6.0869   -1.6924 C.3       12 UNK         0.0378 
      9 C9         30.3007   -5.3054   -2.9927 C.ar      12 UNK        -0.0802 
     10 C10        31.2824   -4.3172   -3.1307 C.ar      12 UNK        -0.0944 
     11 C11        31.4395   -3.6313   -4.3418 C.ar      12 UNK        -0.0787 
     12 C12        30.6055   -3.9481   -5.4182 C.ar      12 UNK        -0.0862 
     13 C13        29.6000   -4.9085   -5.2806 C.ar      12 UNK        -0.0733 
     14 C14        29.4633   -5.5949   -4.0729 C.ar      12 UNK        -0.0832 
     15 C15        28.6389   -5.1874   -6.4240 C.3       12 UNK         0.0240 
     16 S16        27.1321   -4.1799   -6.2583 S.3       12 UNK        -0.2522 
     17 C17        27.8127   -2.5200   -6.5753 C.3       12 UNK        -0.0967 
     18 CA         26.7110   -1.4773   -6.8493 C.3       5 UNK         0.0660 
     19 N          25.8869   -1.2247   -5.6632 N.am      5 UNK        -0.4015 
     20 C          24.7062   -0.5910   -5.6835 C.2       4 UNK         0.4946 
     21 O          24.1974   -0.1185   -6.7012 O.2       4 UNK        -0.5353 
     22 CA         23.9749   -0.4530   -4.3412 C.3       4 UNK         0.0277 
     23 CB         23.2774   -1.7682   -3.9607 C.3       4 UNK        -0.1981 
     24 N          24.8907   -0.0417   -3.2760 N.am      4 UNK        -0.4209 
     25 C          25.2710    1.2283   -3.0726 C.2       3 UNK         0.4942 
     26 O          24.8114    2.1875   -3.6929 O.2       3 UNK        -0.5208 
     27 CA         26.3576    1.4820   -2.0120 C.3       3 UNK         0.0250 
     28 CB         25.7195    1.7468   -0.6390 C.3       3 UNK        -0.1990 
     29 N          27.3347    0.3969   -1.8923 N.am      3 UNK        -0.4232 
     30 C          28.1647    0.0013   -2.8689 C.2       2 UNK         0.4993 
     31 O          28.1962    0.5076   -3.9863 O.2       2 UNK        -0.5286 
     32 CA         29.0704   -1.2017   -2.5684 C.3       2 UNK         0.0209 
     33 CB         30.3659   -0.7405   -1.8824 C.3       2 UNK        -0.1931 
     34 N          28.4261   -2.2237   -1.7428 N.am      2 UNK        -0.4546 
     35 C          27.2790   -2.8516   -2.0326 C.2       1 UNK         0.5154 
     36 O          26.6151   -2.6363   -3.0529 O.2       1 UNK        -0.5181 
     37 C          27.3160   -0.2028   -7.4741 C.2       5 UNK         0.5014 
     38 O          27.6226   -0.2336   -8.6664 O.2       5 UNK        -0.5248 
     39 N          27.4582    0.8857   -6.7010 N.am      6 UNK        -0.4434 
     40 CA         28.0085    2.1960   -7.0872 C.3       6 UNK         0.0363 
     41 CB         27.8418    3.1720   -5.9093 C.3       6 UNK        -0.1936 
     42 C          27.4289    2.8354   -8.3651 C.2       6 UNK         0.5081 
     43 O          28.0694    3.7142   -8.9427 O.2       6 UNK        -0.5248 
     44 N          26.2408    2.3916   -8.7962 N.am      7 UNK        -0.4718 
     45 CA         25.6283    2.7468  -10.0772 C.3       7 UNK         0.0273 
     46 CB         24.1789    2.2345  -10.0905 C.3       7 UNK        -0.1935 
     47 C          26.3971    2.2170  -11.3063 C.2       7 UNK         0.5018 
     48 O          26.2090    2.7621  -12.3952 O.2       7 UNK        -0.5186 
     49 N          27.2262    1.1771  -11.1291 N.am      8 UNK        -0.4240 
     50 CA         28.0129    0.5485  -12.1932 C.3       8 UNK         0.0235 
     51 CB         27.2996   -0.7275  -12.6727 C.3       8 UNK        -0.2000 
     52 C          29.4568    0.2360  -11.7692 C.2       8 UNK         0.4941 
     53 O          30.3621    0.3966  -12.5896 O.2       8 UNK        -0.5273 
     54 N          29.6620   -0.2231  -10.5274 N.am      9 UNK        -0.4262 
     55 CA         30.9737   -0.5857   -9.9882 C.3       9 UNK         0.0264 
     56 CB         30.7888   -1.5655   -8.8183 C.3       9 UNK        -0.1955 
     57 C          31.7475    0.6509   -9.5135 C.2       9 UNK         0.5031 
     58 O          31.1441    1.6142   -9.0354 O.2       9 UNK        -0.5390 
     59 N          33.0809    0.5744   -9.5904 N.am      10 UNK        -0.4204 
     60 CA         34.0107    1.5962   -9.1053 C.3       10 UNK         0.0237 
     61 CB         35.3133    1.5141   -9.9246 C.3       10 UNK        -0.1985 
     62 C          34.2501    1.4583   -7.5886 C.2       10 UNK         0.4970 
     63 O          35.3847    1.2356   -7.1611 O.2       10 UNK        -0.4914 
     64 N          33.1763    1.5833   -6.8048 N.am      11 UNK        -0.4285 
     65 CA         33.1790    1.5438   -5.3386 C.3       11 UNK         0.1007 
     66 C          32.0094    2.3749   -4.7448 C.2       11 UNK         0.5703 
     67 N          31.9374    2.4993   -3.4260 N.am      11 UNK        -0.7361 
     68 O          31.1844    2.9338   -5.4644 O.2       11 UNK        -0.4986 
     69 C69        33.2953    0.0991   -4.7716 C.3       12 UNK        -0.0947 
     70 S70        31.8857   -0.9928   -5.1579 S.3       12 UNK        -0.2240 
     71 C71        32.5219   -2.5670   -4.4897 C.3       12 UNK         0.0194 
     72 H72        22.4011   -2.4844   -0.8146 H         1 UNK         0.0906 
     73 H73        22.7777   -4.0463   -1.5429 H         1 UNK         0.0906 
     74 H74        22.6634   -3.8908    0.2158 H         1 UNK         0.0906 
     75 H75        24.9807   -4.8841   -1.3631 H         1 UNK         0.3140 
     76 H76        27.0363   -3.4506    0.0063 H         1 UNK         0.1085 
     77 H77        26.9638   -5.9883   -0.5200 H         1 UNK         0.0836 
     78 H78        27.4904   -5.5917   -2.1272 H         1 UNK         0.0836 
     79 H79        31.1573   -6.2959   -1.2931 H         1 UNK         0.0731 
     80 H80        29.7035   -7.0596   -1.8738 H         1 UNK         0.0731 
     81 H81        31.9293   -4.0907   -2.2942 H         1 UNK         0.1312 
     82 H82        30.7218   -3.4233   -6.3563 H         1 UNK         0.1406 
     83 H83        28.6964   -6.3511   -3.9760 H         1 UNK         0.1631 
     84 H84        28.3616   -6.2426   -6.4294 H         1 UNK         0.0717 
     85 H85        29.1140   -4.9912   -7.3865 H         1 UNK         0.0717 
     86 H86        28.4286   -2.2103   -5.7294 H         1 UNK         0.0934 
     87 H87        28.4782   -2.6061   -7.4346 H         1 UNK         0.0934 
     88 H88        26.0487   -1.8919   -7.6129 H         1 UNK         0.0739 
     89 H89        26.2153   -1.6280   -4.7907 H         1 UNK         0.3093 
     90 H90        23.2017    0.3094   -4.4609 H         1 UNK         0.0818 
     91 H91        22.6672   -1.6408   -3.0676 H         1 UNK         0.0819 
     92 H92        22.6124   -2.1016   -4.7586 H         1 UNK         0.0819 
     93 H93        23.9904   -2.5720   -3.7740 H         1 UNK         0.0819 
     94 H94        25.3380   -0.7777   -2.7433 H         1 UNK         0.3041 
     95 H95        26.9021    2.3790   -2.3151 H         1 UNK         0.0784 
     96 H96        25.0030    2.5677   -0.6936 H         1 UNK         0.0793 
     97 H97        25.1847    0.8715   -0.2673 H         1 UNK         0.0793 
     98 H98        26.4700    2.0227    0.1020 H         1 UNK         0.0793 
     99 H99        27.3586   -0.1001   -1.0136 H         1 UNK         0.3024 
    100 H100       29.3278   -1.6650   -3.5229 H         1 UNK         0.1171 
    101 H101       30.8659    0.0263   -2.4744 H         1 UNK         0.0786 
    102 H102       31.0687   -1.5653   -1.7666 H         1 UNK         0.0786 
    103 H103       30.1758   -0.3170   -0.8956 H         1 UNK         0.0786 
    104 H104       28.9205   -2.4999   -0.9060 H         1 UNK         0.2977 
    105 H105       27.3060    0.7662   -5.7032 H         1 UNK         0.3127 
    106 H106       29.0760    2.0508   -7.2635 H         1 UNK         0.0770 
    107 H107       26.7972    3.2705   -5.6114 H         1 UNK         0.0814 
    108 H108       28.2067    4.1673   -6.1670 H         1 UNK         0.0814 
    109 H109       28.4119    2.8479   -5.0396 H         1 UNK         0.0814 
    110 H110       25.7789    1.6748   -8.2529 H         1 UNK         0.2983 
    111 H111       25.6103    3.8363  -10.1514 H         1 UNK         0.0947 
    112 H112       23.6775    2.5026  -11.0216 H         1 UNK         0.0806 
    113 H113       23.5974    2.6656   -9.2753 H         1 UNK         0.0806 
    114 H114       24.1346    1.1485   -9.9965 H         1 UNK         0.0806 
    115 H115       27.3251    0.7897  -10.1935 H         1 UNK         0.3000 
    116 H116       28.0885    1.2312  -13.0426 H         1 UNK         0.0850 
    117 H117       27.8694   -1.2229  -13.4601 H         1 UNK         0.0810 
    118 H118       26.3144   -0.5000  -13.0802 H         1 UNK         0.0810 
    119 H119       27.1692   -1.4443  -11.8608 H         1 UNK         0.0810 
    120 H120       28.8811   -0.2826   -9.8759 H         1 UNK         0.3040 
    121 H121       31.5473   -1.0871  -10.7710 H         1 UNK         0.0766 
    122 H122       31.7516   -1.9122   -8.4406 H         1 UNK         0.0812 
    123 H123       30.2243   -2.4465   -9.1233 H         1 UNK         0.0812 
    124 H124       30.2677   -1.0955   -7.9834 H         1 UNK         0.0812 
    125 H125       33.4975   -0.2721   -9.9515 H         1 UNK         0.3205 
    126 H126       33.5770    2.5843   -9.2751 H         1 UNK         0.0754 
    127 H127       36.0201    2.2844   -9.6129 H         1 UNK         0.0769 
    128 H128       35.1227    1.6644  -10.9875 H         1 UNK         0.0769 
    129 H129       35.8080    0.5492   -9.8055 H         1 UNK         0.0769 
    130 H130       32.2752    1.7836   -7.2283 H         1 UNK         0.2981 
    131 H131       34.0727    2.0849   -5.0219 H         1 UNK         0.0541 
    132 H132       32.6188    2.0699   -2.8213 H         1 UNK         0.3459 
    133 H133       31.1890    3.0461   -3.0319 H         1 UNK         0.3459 
    134 H134       33.4176    0.1276   -3.6880 H         1 UNK         0.0612 
    135 H135       34.2023   -0.3710   -5.1542 H         1 UNK         0.0612 
    136 H136       32.9911   -2.3725   -3.5241 H         1 UNK         0.0624 
    137 H137       33.3058   -2.9426   -5.1485 H         1 UNK         0.0624 
@<TRIPOS>BOND
     1    1    2 1    
     2    1   72 1    
     3    1   73 1    
     4    1   74 1    
     5    2    3 2    
     6    2    4 am   BACKBONE|DICT|INTERRES
     7    4    5 1    
     8    4   75 1    
     9    5    6 1    
    10    5   35 1    
    11    5   76 1    
    12    6    7 1    
    13    6   77 1    
    14    6   78 1    
    15    7    8 1    
    16    8    9 1    
    17    8   79 1    
    18    8   80 1    
    19    9   10 ar   
    20    9   14 ar   
    21   10   11 ar   
    22   10   81 1    
    23   11   12 ar   
    24   11   71 1    
    25   12   13 ar   
    26   12   82 1    
    27   13   14 ar   
    28   13   15 1    
    29   14   83 1    
    30   15   16 1    
    31   15   84 1    
    32   15   85 1    
    33   16   17 1    
    34   17   18 1    
    35   17   86 1    
    36   17   87 1    
    37   18   19 1    
    38   18   37 1    
    39   18   88 1    
    40   19   20 am   BACKBONE|DICT|INTERRES
    41   19   89 1    
    42   20   21 2    
    43   20   22 1    
    44   22   23 1    
    45   22   24 1    
    46   22   90 1    
    47   23   91 1    
    48   23   92 1    
    49   23   93 1    
    50   24   25 am   BACKBONE|DICT|INTERRES
    51   24   94 1    
    52   25   26 2    
    53   25   27 1    
    54   27   28 1    
    55   27   29 1    
    56   27   95 1    
    57   28   96 1    
    58   28   97 1    
    59   28   98 1    
    60   29   30 am   BACKBONE|DICT|INTERRES
    61   29   99 1    
    62   30   31 2    
    63   30   32 1    
    64   32   33 1    
    65   32   34 1    
    66   32  100 1    
    67   33  101 1    
    68   33  102 1    
    69   33  103 1    
    70   34   35 am   BACKBONE|DICT|INTERRES
    71   34  104 1    
    72   35   36 2    
    73   37   38 2    
    74   37   39 am   BACKBONE|DICT|INTERRES
    75   39   40 1    
    76   39  105 1    
    77   40   41 1    
    78   40   42 1    
    79   40  106 1    
    80   41  107 1    
    81   41  108 1    
    82   41  109 1    
    83   42   43 2    
    84   42   44 am   BACKBONE|DICT|INTERRES
    85   44   45 1    
    86   44  110 1    
    87   45   46 1    
    88   45   47 1    
    89   45  111 1    
    90   46  112 1    
    91   46  113 1    
    92   46  114 1    
    93   47   48 2    
    94   47   49 am   BACKBONE|DICT|INTERRES
    95   49   50 1    
    96   49  115 1    
    97   50   51 1    
    98   50   52 1    
    99   50  116 1    
   100   51  117 1    
   101   51  118 1    
   102   51  119 1    
   103   52   53 2    
   104   52   54 am   BACKBONE|DICT|INTERRES
   105   54   55 1    
   106   54  120 1    
   107   55   56 1    
   108   55   57 1    
   109   55  121 1    
   110   56  122 1    
   111   56  123 1    
   112   56  124 1    
   113   57   58 2    
   114   57   59 am   BACKBONE|DICT|INTERRES
   115   59   60 1    
   116   59  125 1    
   117   60   61 1    
   118   60   62 1    
   119   60  126 1    
   120   61  127 1    
   121   61  128 1    
   122   61  129 1    
   123   62   63 2    
   124   62   64 am   BACKBONE|DICT|INTERRES
   125   64   65 1    
   126   64  130 1    
   127   65   66 1    
   128   65   69 1    
   129   65  131 1    
   130   66   67 am   BACKBONE|DICT|INTERRES
   131   66   68 2    
   132   67  132 1    
   133   67  133 1    
   134   69   70 1    
   135   69  134 1    
   136   69  135 1    
   137   70   71 1    
   138   71  136 1    
   139   71  137 1    
@<TRIPOS>SUBSTRUCTURE
     1 UNK         1 GROUP             0       ****    0 ROOT    
