@<TRIPOS>MOLECULE
3R137
137   139    1
SMALL
USER_CHARGES


@<TRIPOS>ATOM
      1 CA         25.8668   -6.8853   -4.8478 C.3       0 UNK        -0.2020 
      2 C          26.5637   -5.6703   -4.2551 C.2       0 UNK         0.4855 
      3 O          26.8171   -4.7081   -4.9767 O.2       0 UNK        -0.5197 
      4 N          26.8544   -5.7092   -2.9469 N.am      1 UNK        -0.4892 
      5 CA         27.5412   -4.6812   -2.1507 C.3       1 UNK         0.0835 
      6 C6         29.0813   -4.6719   -2.3673 C.3       12 UNK        -0.0855 
      7 S7         29.9489   -4.3698   -0.7900 S.3       12 UNK        -0.2931 
      8 C8         31.5077   -3.6020   -1.3393 C.3       12 UNK         0.0378 
      9 C9         31.3709   -2.1421   -1.7640 C.ar      12 UNK        -0.0802 
     10 C10        32.0642   -1.6879   -2.8879 C.ar      12 UNK        -0.0944 
     11 C11        32.0064   -0.3456   -3.2764 C.ar      12 UNK        -0.0787 
     12 C12        31.2523    0.5527   -2.5135 C.ar      12 UNK        -0.0862 
     13 C13        30.5566    0.1179   -1.3791 C.ar      12 UNK        -0.0733 
     14 C14        30.6216   -1.2305   -1.0124 C.ar      12 UNK        -0.0832 
     15 C15        29.7650    1.0952   -0.5121 C.3       12 UNK         0.0240 
     16 S16        28.6567    2.2033   -1.4479 S.3       12 UNK        -0.2522 
     17 C17        27.6489    1.0229   -2.4047 C.3       12 UNK        -0.0967 
     18 CA         27.8526    1.2146   -3.9301 C.3       5 UNK         0.0660 
     19 N          27.7402   -0.0441   -4.6708 N.am      5 UNK        -0.4015 
     20 C          28.0151   -0.1872   -5.9768 C.2       4 UNK         0.4946 
     21 O          28.4307    0.7208   -6.6971 O.2       4 UNK        -0.5353 
     22 CA         27.7158   -1.5585   -6.6019 C.3       4 UNK         0.0277 
     23 CB         28.8620   -2.5456   -6.3361 C.3       4 UNK        -0.1981 
     24 N          26.4526   -2.1237   -6.1229 N.am      4 UNK        -0.4209 
     25 C          25.2484   -1.5712   -6.3331 C.2       3 UNK         0.4942 
     26 O          25.0659   -0.5507   -6.9964 O.2       3 UNK        -0.5208 
     27 CA         24.0489   -2.2362   -5.6418 C.3       3 UNK         0.0250 
     28 CB         23.6529   -3.5425   -6.3490 C.3       3 UNK        -0.1990 
     29 N          24.2971   -2.4878   -4.2209 N.am      3 UNK        -0.4232 
     30 C          24.4935   -1.5299   -3.3027 C.2       2 UNK         0.4993 
     31 O          24.4664   -0.3254   -3.5484 O.2       2 UNK        -0.5286 
     32 CA         24.8088   -1.9884   -1.8708 C.3       2 UNK         0.0209 
     33 CB         23.5127   -2.1999   -1.0726 C.3       2 UNK        -0.1931 
     34 N          25.6243   -3.2045   -1.8183 N.am      2 UNK        -0.4546 
     35 C          26.8784   -3.2928   -2.2845 C.2       1 UNK         0.5154 
     36 O          27.4621   -2.3592   -2.8396 O.2       1 UNK        -0.5181 
     37 C          26.9225    2.3128   -4.4889 C.2       5 UNK         0.5014 
     38 O          27.3808    3.4323   -4.7219 O.2       5 UNK        -0.5248 
     39 N          25.6430    1.9719   -4.7081 N.am      6 UNK        -0.4434 
     40 CA         24.6247    2.8648   -5.2668 C.3       6 UNK         0.0363 
     41 CB         23.2383    2.2128   -5.1440 C.3       6 UNK        -0.1936 
     42 C          24.9053    3.2627   -6.7242 C.2       6 UNK         0.5081 
     43 O          24.7092    4.4259   -7.0784 O.2       6 UNK        -0.5248 
     44 N          25.3634    2.3027   -7.5397 N.am      7 UNK        -0.4718 
     45 CA         25.7655    2.5300   -8.9298 C.3       7 UNK         0.0273 
     46 CB         25.9161    1.1772   -9.6448 C.3       7 UNK        -0.1935 
     47 C          27.0665    3.3402   -9.0573 C.2       7 UNK         0.5018 
     48 O          27.2220    4.0644  -10.0414 O.2       7 UNK        -0.5186 
     49 N          27.9731    3.1779   -8.0801 N.am      8 UNK        -0.4240 
     50 CA         29.3549    3.6704   -8.0484 C.3       8 UNK         0.0235 
     51 CB         29.3981    5.2106   -7.9599 C.3       8 UNK        -0.2000 
     52 C          30.1716    3.0964   -9.2216 C.2       8 UNK         0.4941 
     53 O          30.8796    3.8340   -9.9108 O.2       8 UNK        -0.5273 
     54 N          30.0152    1.7879   -9.4494 N.am      9 UNK        -0.4262 
     55 CA         30.5442    1.0491  -10.5898 C.3       9 UNK         0.0264 
     56 CB         29.6112    1.2405  -11.8018 C.3       9 UNK        -0.1955 
     57 C          30.6640   -0.4301  -10.2101 C.2       9 UNK         0.5031 
     58 O          30.1588   -0.8369   -9.1615 O.2       9 UNK        -0.5390 
     59 N          31.3393   -1.2058  -11.0686 N.am      10 UNK        -0.4204 
     60 CA         31.6588   -2.6376  -10.9524 C.3       10 UNK         0.0237 
     61 CB         30.3945   -3.5084  -10.8009 C.3       10 UNK        -0.1985 
     62 C          32.6964   -2.9552   -9.8612 C.2       10 UNK         0.4970 
     63 O          33.6459   -3.6895  -10.1388 O.2       10 UNK        -0.4914 
     64 N          32.5192   -2.3925   -8.6612 N.am      11 UNK        -0.4285 
     65 CA         33.4965   -2.4281   -7.5679 C.3       11 UNK         0.1007 
     66 C          34.7599   -1.5613   -7.8425 C.2       11 UNK         0.5703 
     67 N          35.8474   -1.8118   -7.1252 N.am      11 UNK        -0.7361 
     68 O          34.7638   -0.6586   -8.6787 O.2       11 UNK        -0.4986 
     69 C69        32.8365   -2.1137   -6.2009 C.3       12 UNK        -0.0947 
     70 S70        32.0968   -0.4451   -6.0639 S.3       12 UNK        -0.2240 
     71 C71        32.7935    0.1462   -4.4872 C.3       12 UNK         0.0194 
     72 H72        24.8791   -6.6096   -5.2157 H         1 UNK         0.0906 
     73 H73        26.4450   -7.2750   -5.6852 H         1 UNK         0.0906 
     74 H74        25.7468   -7.6857   -4.1181 H         1 UNK         0.0906 
     75 H75        26.5910   -6.5348   -2.4257 H         1 UNK         0.3140 
     76 H76        27.3565   -4.9883   -1.1194 H         1 UNK         0.1085 
     77 H77        29.4185   -5.6435   -2.7313 H         1 UNK         0.0836 
     78 H78        29.3931   -3.9527   -3.1270 H         1 UNK         0.0836 
     79 H79        31.9271   -4.2054   -2.1461 H         1 UNK         0.0731 
     80 H80        32.2232   -3.6503   -0.5175 H         1 UNK         0.0731 
     81 H81        32.6656   -2.3863   -3.4482 H         1 UNK         0.1312 
     82 H82        31.2142    1.5962   -2.7945 H         1 UNK         0.1406 
     83 H83        30.1007   -1.5718   -0.1284 H         1 UNK         0.1631 
     84 H84        30.4682    1.7048    0.0565 H         1 UNK         0.0717 
     85 H85        29.1633    0.5567    0.2219 H         1 UNK         0.0717 
     86 H86        27.9350    0.0155   -2.1059 H         1 UNK         0.0934 
     87 H87        26.6009    1.1195   -2.1138 H         1 UNK         0.0934 
     88 H88        28.8781    1.5494   -4.1017 H         1 UNK         0.0739 
     89 H89        27.4550   -0.8628   -4.1402 H         1 UNK         0.3093 
     90 H90        27.6310   -1.4205   -7.6819 H         1 UNK         0.0818 
     91 H91        29.0256   -2.6995   -5.2687 H         1 UNK         0.0819 
     92 H92        28.6647   -3.5165   -6.7901 H         1 UNK         0.0819 
     93 H93        29.7925   -2.1740   -6.7636 H         1 UNK         0.0819 
     94 H94        26.5192   -2.9846   -5.5814 H         1 UNK         0.3041 
     95 H95        23.2052   -1.5460   -5.7113 H         1 UNK         0.0784 
     96 H96        23.4275   -3.3601   -7.4006 H         1 UNK         0.0793 
     97 H97        24.4507   -4.2844   -6.3130 H         1 UNK         0.0793 
     98 H98        22.7627   -3.9834   -5.9000 H         1 UNK         0.0793 
     99 H99        24.3757   -3.4512   -3.9315 H         1 UNK         0.3024 
    100 H100       25.3775   -1.1866   -1.3940 H         1 UNK         0.1171 
    101 H101       22.8977   -1.2987   -1.0832 H         1 UNK         0.0786 
    102 H102       23.7227   -2.4333   -0.0286 H         1 UNK         0.0786 
    103 H103       22.9099   -3.0103   -1.4844 H         1 UNK         0.0786 
    104 H104       25.2014   -4.0216   -1.4014 H         1 UNK         0.2977 
    105 H105       25.3250    1.0416   -4.4390 H         1 UNK         0.3127 
    106 H106       24.6236    3.7792   -4.6699 H         1 UNK         0.0770 
    107 H107       23.1901    1.2657   -5.6831 H         1 UNK         0.0814 
    108 H108       22.4622    2.8623   -5.5509 H         1 UNK         0.0814 
    109 H109       22.9840    2.0168   -4.1022 H         1 UNK         0.0814 
    110 H110       25.4320    1.3489   -7.1918 H         1 UNK         0.2983 
    111 H111       24.9734    3.0948   -9.4263 H         1 UNK         0.0947 
    112 H112       26.1869    1.3163  -10.6922 H         1 UNK         0.0806 
    113 H113       24.9849    0.6108   -9.6226 H         1 UNK         0.0806 
    114 H114       26.6918    0.5630   -9.1847 H         1 UNK         0.0806 
    115 H115       27.7594    2.4925   -7.3612 H         1 UNK         0.3000 
    116 H116       29.8006    3.2712   -7.1358 H         1 UNK         0.0850 
    117 H117       30.4208    5.5631   -7.8211 H         1 UNK         0.0810 
    118 H118       28.8117    5.5729   -7.1154 H         1 UNK         0.0810 
    119 H119       29.0125    5.6819   -8.8643 H         1 UNK         0.0810 
    120 H120       29.4982    1.2196   -8.7839 H         1 UNK         0.3040 
    121 H121       31.5432    1.4212  -10.8269 H         1 UNK         0.0766 
    122 H122       29.5135    2.2938  -12.0662 H         1 UNK         0.0812 
    123 H123       28.6109    0.8552  -11.6005 H         1 UNK         0.0812 
    124 H124       29.9902    0.7230  -12.6835 H         1 UNK         0.0812 
    125 H125       31.7322   -0.7558  -11.8843 H         1 UNK         0.3205 
    126 H126       32.1197   -2.9069  -11.9043 H         1 UNK         0.0754 
    127 H127       30.6477   -4.5683  -10.8476 H         1 UNK         0.0769 
    128 H128       29.6790   -3.3102  -11.5990 H         1 UNK         0.0769 
    129 H129       29.8895   -3.3413   -9.8490 H         1 UNK         0.0769 
    130 H130       31.7156   -1.7834   -8.5347 H         1 UNK         0.2981 
    131 H131       33.8501   -3.4596   -7.5103 H         1 UNK         0.0541 
    132 H132       36.6741   -1.2569   -7.2823 H         1 UNK         0.3459 
    133 H133       35.8621   -2.5464   -6.4353 H         1 UNK         0.3459 
    134 H134       33.5805   -2.2514   -5.4169 H         1 UNK         0.0612 
    135 H135       32.0536   -2.8443   -5.9937 H         1 UNK         0.0612 
    136 H136       32.7996    1.2369   -4.5121 H         1 UNK         0.0624 
    137 H137       33.8381   -0.1560   -4.4015 H         1 UNK         0.0624 
@<TRIPOS>BOND
     1    1    2 1    
     2    1   72 1    
     3    1   73 1    
     4    1   74 1    
     5    2    3 2    
     6    2    4 am   BACKBONE|DICT|INTERRES
     7    4    5 1    
     8    4   75 1    
     9    5    6 1    
    10    5   35 1    
    11    5   76 1    
    12    6    7 1    
    13    6   77 1    
    14    6   78 1    
    15    7    8 1    
    16    8    9 1    
    17    8   79 1    
    18    8   80 1    
    19    9   10 ar   
    20    9   14 ar   
    21   10   11 ar   
    22   10   81 1    
    23   11   12 ar   
    24   11   71 1    
    25   12   13 ar   
    26   12   82 1    
    27   13   14 ar   
    28   13   15 1    
    29   14   83 1    
    30   15   16 1    
    31   15   84 1    
    32   15   85 1    
    33   16   17 1    
    34   17   18 1    
    35   17   86 1    
    36   17   87 1    
    37   18   19 1    
    38   18   37 1    
    39   18   88 1    
    40   19   20 am   BACKBONE|DICT|INTERRES
    41   19   89 1    
    42   20   21 2    
    43   20   22 1    
    44   22   23 1    
    45   22   24 1    
    46   22   90 1    
    47   23   91 1    
    48   23   92 1    
    49   23   93 1    
    50   24   25 am   BACKBONE|DICT|INTERRES
    51   24   94 1    
    52   25   26 2    
    53   25   27 1    
    54   27   28 1    
    55   27   29 1    
    56   27   95 1    
    57   28   96 1    
    58   28   97 1    
    59   28   98 1    
    60   29   30 am   BACKBONE|DICT|INTERRES
    61   29   99 1    
    62   30   31 2    
    63   30   32 1    
    64   32   33 1    
    65   32   34 1    
    66   32  100 1    
    67   33  101 1    
    68   33  102 1    
    69   33  103 1    
    70   34   35 am   BACKBONE|DICT|INTERRES
    71   34  104 1    
    72   35   36 2    
    73   37   38 2    
    74   37   39 am   BACKBONE|DICT|INTERRES
    75   39   40 1    
    76   39  105 1    
    77   40   41 1    
    78   40   42 1    
    79   40  106 1    
    80   41  107 1    
    81   41  108 1    
    82   41  109 1    
    83   42   43 2    
    84   42   44 am   BACKBONE|DICT|INTERRES
    85   44   45 1    
    86   44  110 1    
    87   45   46 1    
    88   45   47 1    
    89   45  111 1    
    90   46  112 1    
    91   46  113 1    
    92   46  114 1    
    93   47   48 2    
    94   47   49 am   BACKBONE|DICT|INTERRES
    95   49   50 1    
    96   49  115 1    
    97   50   51 1    
    98   50   52 1    
    99   50  116 1    
   100   51  117 1    
   101   51  118 1    
   102   51  119 1    
   103   52   53 2    
   104   52   54 am   BACKBONE|DICT|INTERRES
   105   54   55 1    
   106   54  120 1    
   107   55   56 1    
   108   55   57 1    
   109   55  121 1    
   110   56  122 1    
   111   56  123 1    
   112   56  124 1    
   113   57   58 2    
   114   57   59 am   BACKBONE|DICT|INTERRES
   115   59   60 1    
   116   59  125 1    
   117   60   61 1    
   118   60   62 1    
   119   60  126 1    
   120   61  127 1    
   121   61  128 1    
   122   61  129 1    
   123   62   63 2    
   124   62   64 am   BACKBONE|DICT|INTERRES
   125   64   65 1    
   126   64  130 1    
   127   65   66 1    
   128   65   69 1    
   129   65  131 1    
   130   66   67 am   BACKBONE|DICT|INTERRES
   131   66   68 2    
   132   67  132 1    
   133   67  133 1    
   134   69   70 1    
   135   69  134 1    
   136   69  135 1    
   137   70   71 1    
   138   71  136 1    
   139   71  137 1    
@<TRIPOS>SUBSTRUCTURE
     1 UNK         1 GROUP             0       ****    0 ROOT    
