@<TRIPOS>MOLECULE
3R137
137   139    1
SMALL
USER_CHARGES


@<TRIPOS>ATOM
      1 CA         26.6836   -6.7516    0.1336 C.3       0 UNK        -0.2020 
      2 C          26.8473   -5.2841    0.4994 C.2       0 UNK         0.4855 
      3 O          26.2525   -4.8256    1.4749 O.2       0 UNK        -0.5197 
      4 N          27.6500   -4.5447   -0.2769 N.am      1 UNK        -0.4892 
      5 CA         27.9175   -3.1124   -0.0817 C.3       1 UNK         0.0835 
      6 C6         29.2026   -2.6667   -0.8191 C.3       12 UNK        -0.0855 
      7 S7         30.7120   -3.4026   -0.0926 S.3       12 UNK        -0.2931 
      8 C8         31.0687   -4.8309   -1.1740 C.3       12 UNK         0.0378 
      9 C9         31.2151   -4.4339   -2.6359 C.ar      12 UNK        -0.0802 
     10 C10        32.2455   -3.5763   -3.0337 C.ar      12 UNK        -0.0944 
     11 C11        32.3406   -3.1516   -4.3618 C.ar      12 UNK        -0.0787 
     12 C12        31.4188   -3.6186   -5.3020 C.ar      12 UNK        -0.0862 
     13 C13        30.3703   -4.4565   -4.9104 C.ar      12 UNK        -0.0733 
     14 C14        30.2882   -4.8823   -3.5821 C.ar      12 UNK        -0.0832 
     15 C15        29.2740   -4.8250   -5.9010 C.3       12 UNK         0.0240 
     16 S16        27.6981   -3.9928   -5.4954 S.3       12 UNK        -0.2522 
     17 C17        28.1798   -2.2308   -5.4965 C.3       12 UNK        -0.0967 
     18 CA         27.4482   -1.4123   -6.5811 C.3       5 UNK         0.0660 
     19 N          26.0058   -1.3117   -6.3473 N.am      5 UNK        -0.4015 
     20 C          25.1233   -0.9184   -7.2782 C.2       4 UNK         0.4946 
     21 O          25.4338   -0.6426   -8.4355 O.2       4 UNK        -0.5353 
     22 CA         23.6563   -0.7505   -6.8461 C.3       4 UNK         0.0277 
     23 CB         22.9107   -2.0909   -6.9407 C.3       4 UNK        -0.1981 
     24 N          23.5169   -0.2047   -5.4957 N.am      4 UNK        -0.4209 
     25 C          23.9883    0.9862   -5.0976 C.2       3 UNK         0.4942 
     26 O          24.4953    1.8075   -5.8611 O.2       3 UNK        -0.5208 
     27 CA         23.9428    1.2880   -3.5875 C.3       3 UNK         0.0250 
     28 CB         22.7244    2.1622   -3.2518 C.3       3 UNK        -0.1990 
     29 N          23.9342    0.0884   -2.7381 N.am      3 UNK        -0.4232 
     30 C          24.9000   -0.8418   -2.7095 C.2       2 UNK         0.4993 
     31 O          25.9149   -0.7948   -3.4091 O.2       2 UNK        -0.5286 
     32 CA         24.6280   -2.0728   -1.8302 C.3       2 UNK         0.0209 
     33 CB         23.7840   -3.0975   -2.6076 C.3       2 UNK        -0.1931 
     34 N          25.8548   -2.7303   -1.3776 N.am      2 UNK        -0.4546 
     35 C          26.7144   -2.2277   -0.4799 C.2       1 UNK         0.5154 
     36 O          26.5709   -1.1278    0.0572 O.2       1 UNK        -0.5181 
     37 C          28.0866   -0.0194   -6.7162 C.2       5 UNK         0.5014 
     38 O          28.9255    0.1710   -7.5962 O.2       5 UNK        -0.5248 
     39 N          27.6651    0.9418   -5.8815 N.am      6 UNK        -0.4434 
     40 CA         28.1155    2.3362   -5.9579 C.3       6 UNK         0.0363 
     41 CB         27.5591    3.1336   -4.7678 C.3       6 UNK        -0.1936 
     42 C          27.7502    3.0092   -7.2949 C.2       6 UNK         0.5081 
     43 O          28.5279    3.8226   -7.7928 O.2       6 UNK        -0.5248 
     44 N          26.5957    2.6340   -7.8604 N.am      7 UNK        -0.4718 
     45 CA         26.1511    3.0428   -9.1891 C.3       7 UNK         0.0273 
     46 CB         24.6268    2.8630   -9.2952 C.3       7 UNK        -0.1935 
     47 C          26.8806    2.2886  -10.3159 C.2       7 UNK         0.5018 
     48 O          27.4761    2.9334  -11.1799 O.2       7 UNK        -0.5186 
     49 N          26.7795    0.9509  -10.3236 N.am      8 UNK        -0.4240 
     50 CA         27.1883    0.1111  -11.4532 C.3       8 UNK         0.0235 
     51 CB         26.3653   -1.1881  -11.4596 C.3       8 UNK        -0.2000 
     52 C          28.6883   -0.2114  -11.4839 C.2       8 UNK         0.4941 
     53 O          29.2897   -0.1349  -12.5565 O.2       8 UNK        -0.5273 
     54 N          29.2608   -0.5996  -10.3362 N.am      9 UNK        -0.4262 
     55 CA         30.6737   -0.9733  -10.2205 C.3       9 UNK         0.0264 
     56 CB         30.8708   -2.0022   -9.0916 C.3       9 UNK        -0.1955 
     57 C          31.5585    0.2620  -10.0072 C.2       9 UNK         0.5031 
     58 O          32.6222    0.3425  -10.6226 O.2       9 UNK        -0.5390 
     59 N          31.0873    1.1961   -9.1639 N.am      10 UNK        -0.4204 
     60 CA         31.7080    2.4802   -8.8128 C.3       10 UNK         0.0237 
     61 CB         31.6682    3.4459  -10.0159 C.3       10 UNK        -0.1985 
     62 C          33.1223    2.2920   -8.2327 C.2       10 UNK         0.4970 
     63 O          34.1100    2.6697   -8.8664 O.2       10 UNK        -0.4914 
     64 N          33.1682    1.6554   -7.0555 N.am      11 UNK        -0.4285 
     65 CA         34.3639    1.2124   -6.3198 C.3       11 UNK         0.1007 
     66 C          35.4699    2.2952   -6.1711 C.2       11 UNK         0.5703 
     67 N          36.7306    1.9293   -6.3610 N.am      11 UNK        -0.7361 
     68 O          35.1957    3.4461   -5.8349 O.2       11 UNK        -0.4986 
     69 C69        33.9883    0.6587   -4.9182 C.3       12 UNK        -0.0947 
     70 S70        32.5716   -0.4908   -4.9233 S.3       12 UNK        -0.2240 
     71 C71        33.3759   -2.1144   -4.7631 C.3       12 UNK         0.0194 
     72 H72        27.0043   -7.3823    0.9624 H         1 UNK         0.0906 
     73 H73        25.6370   -6.9712   -0.0761 H         1 UNK         0.0906 
     74 H74        27.2695   -7.0230   -0.7444 H         1 UNK         0.0906 
     75 H75        28.1193   -4.9753   -1.0590 H         1 UNK         0.3140 
     76 H76        28.0719   -2.9454    0.9871 H         1 UNK         0.1085 
     77 H77        29.3222   -1.5835   -0.7479 H         1 UNK         0.0836 
     78 H78        29.1354   -2.8824   -1.8862 H         1 UNK         0.0836 
     79 H79        31.9951   -5.3003   -0.8402 H         1 UNK         0.0731 
     80 H80        30.2874   -5.5812   -1.0469 H         1 UNK         0.0731 
     81 H81        32.9424   -3.2019   -2.2960 H         1 UNK         0.1312 
     82 H82        31.4767   -3.2663   -6.3227 H         1 UNK         0.1406 
     83 H83        29.4697   -5.5218   -3.2813 H         1 UNK         0.1631 
     84 H84        29.1216   -5.9050   -5.8911 H         1 UNK         0.0717 
     85 H85        29.5638   -4.5624   -6.9198 H         1 UNK         0.0717 
     86 H86        27.9971   -1.8236   -4.5013 H         1 UNK         0.0934 
     87 H87        29.2548   -2.1462   -5.6479 H         1 UNK         0.0934 
     88 H88        27.5957   -1.9211   -7.5366 H         1 UNK         0.0739 
     89 H89        25.7004   -1.4558   -5.3920 H         1 UNK         0.3093 
     90 H90        23.1883   -0.0463   -7.5374 H         1 UNK         0.0818 
     91 H91        21.8496   -1.9719   -6.7207 H         1 UNK         0.0819 
     92 H92        22.9860   -2.5071   -7.9465 H         1 UNK         0.0819 
     93 H93        23.3171   -2.8316   -6.2507 H         1 UNK         0.0819 
     94 H94        23.0966   -0.8047   -4.8021 H         1 UNK         0.3041 
     95 H95        24.8457    1.8522   -3.3455 H         1 UNK         0.0784 
     96 H96        22.7215    3.0735   -3.8520 H         1 UNK         0.0793 
     97 H97        21.7861    1.6412   -3.4463 H         1 UNK         0.0793 
     98 H98        22.7302    2.4674   -2.2052 H         1 UNK         0.0793 
     99 H99        23.1243   -0.0333   -2.1462 H         1 UNK         0.3024 
    100 H100       24.0733   -1.7517   -0.9454 H         1 UNK         0.1171 
    101 H101       22.8327   -2.6687   -2.9252 H         1 UNK         0.0786 
    102 H102       23.5517   -3.9674   -1.9927 H         1 UNK         0.0786 
    103 H103       24.2996   -3.4489   -3.5029 H         1 UNK         0.0786 
    104 H104       26.0639   -3.6315   -1.7800 H         1 UNK         0.2977 
    105 H105       26.9708    0.7139   -5.1827 H         1 UNK         0.3127 
    106 H106       29.2050    2.3316   -5.8816 H         1 UNK         0.0770 
    107 H107       26.4724    3.2086   -4.8007 H         1 UNK         0.0814 
    108 H108       27.9522    4.1510   -4.7678 H         1 UNK         0.0814 
    109 H109       27.8379    2.6788   -3.8171 H         1 UNK         0.0814 
    110 H110       25.9832    2.0173   -7.3376 H         1 UNK         0.2983 
    111 H111       26.3684    4.1065   -9.3112 H         1 UNK         0.0947 
    112 H112       24.2652    3.1645  -10.2792 H         1 UNK         0.0806 
    113 H113       24.1063    3.4733   -8.5569 H         1 UNK         0.0806 
    114 H114       24.3250    1.8269   -9.1387 H         1 UNK         0.0806 
    115 H115       26.2777    0.4811   -9.5703 H         1 UNK         0.3000 
    116 H116       26.9524    0.6465  -12.3760 H         1 UNK         0.0850 
    117 H117       26.6008   -1.7946  -12.3351 H         1 UNK         0.0810 
    118 H118       25.2955   -0.9801  -11.4870 H         1 UNK         0.0810 
    119 H119       26.5639   -1.7991  -10.5783 H         1 UNK         0.0810 
    120 H120       28.7319   -0.5476   -9.4732 H         1 UNK         0.3040 
    121 H121       30.9878   -1.4518  -11.1510 H         1 UNK         0.0766 
    122 H122       31.8962   -2.3739   -9.0879 H         1 UNK         0.0812 
    123 H123       30.2150   -2.8635   -9.2189 H         1 UNK         0.0812 
    124 H124       30.6839   -1.5805   -8.1048 H         1 UNK         0.0812 
    125 H125       30.2271    0.9698   -8.6667 H         1 UNK         0.3205 
    126 H126       31.0976    2.9181   -8.0219 H         1 UNK         0.0754 
    127 H127       32.0734    4.4216   -9.7453 H         1 UNK         0.0769 
    128 H128       30.6448    3.6028  -10.3583 H         1 UNK         0.0769 
    129 H129       32.2503    3.0728  -10.8592 H         1 UNK         0.0769 
    130 H130       32.2958    1.3775   -6.6313 H         1 UNK         0.2981 
    131 H131       34.7778    0.3878   -6.9030 H         1 UNK         0.0541 
    132 H132       37.4608    2.6155   -6.2507 H         1 UNK         0.3459 
    133 H133       36.9673    0.9847   -6.6221 H         1 UNK         0.3459 
    134 H134       33.7204    1.4790   -4.2491 H         1 UNK         0.0612 
    135 H135       34.8500    0.1698   -4.4603 H         1 UNK         0.0612 
    136 H136       33.8429   -2.3885   -5.7102 H         1 UNK         0.0624 
    137 H137       34.1713   -2.0641   -4.0180 H         1 UNK         0.0624 
@<TRIPOS>BOND
     1    1    2 1    
     2    1   72 1    
     3    1   73 1    
     4    1   74 1    
     5    2    3 2    
     6    2    4 am   BACKBONE|DICT|INTERRES
     7    4    5 1    
     8    4   75 1    
     9    5    6 1    
    10    5   35 1    
    11    5   76 1    
    12    6    7 1    
    13    6   77 1    
    14    6   78 1    
    15    7    8 1    
    16    8    9 1    
    17    8   79 1    
    18    8   80 1    
    19    9   10 ar   
    20    9   14 ar   
    21   10   11 ar   
    22   10   81 1    
    23   11   12 ar   
    24   11   71 1    
    25   12   13 ar   
    26   12   82 1    
    27   13   14 ar   
    28   13   15 1    
    29   14   83 1    
    30   15   16 1    
    31   15   84 1    
    32   15   85 1    
    33   16   17 1    
    34   17   18 1    
    35   17   86 1    
    36   17   87 1    
    37   18   19 1    
    38   18   37 1    
    39   18   88 1    
    40   19   20 am   BACKBONE|DICT|INTERRES
    41   19   89 1    
    42   20   21 2    
    43   20   22 1    
    44   22   23 1    
    45   22   24 1    
    46   22   90 1    
    47   23   91 1    
    48   23   92 1    
    49   23   93 1    
    50   24   25 am   BACKBONE|DICT|INTERRES
    51   24   94 1    
    52   25   26 2    
    53   25   27 1    
    54   27   28 1    
    55   27   29 1    
    56   27   95 1    
    57   28   96 1    
    58   28   97 1    
    59   28   98 1    
    60   29   30 am   BACKBONE|DICT|INTERRES
    61   29   99 1    
    62   30   31 2    
    63   30   32 1    
    64   32   33 1    
    65   32   34 1    
    66   32  100 1    
    67   33  101 1    
    68   33  102 1    
    69   33  103 1    
    70   34   35 am   BACKBONE|DICT|INTERRES
    71   34  104 1    
    72   35   36 2    
    73   37   38 2    
    74   37   39 am   BACKBONE|DICT|INTERRES
    75   39   40 1    
    76   39  105 1    
    77   40   41 1    
    78   40   42 1    
    79   40  106 1    
    80   41  107 1    
    81   41  108 1    
    82   41  109 1    
    83   42   43 2    
    84   42   44 am   BACKBONE|DICT|INTERRES
    85   44   45 1    
    86   44  110 1    
    87   45   46 1    
    88   45   47 1    
    89   45  111 1    
    90   46  112 1    
    91   46  113 1    
    92   46  114 1    
    93   47   48 2    
    94   47   49 am   BACKBONE|DICT|INTERRES
    95   49   50 1    
    96   49  115 1    
    97   50   51 1    
    98   50   52 1    
    99   50  116 1    
   100   51  117 1    
   101   51  118 1    
   102   51  119 1    
   103   52   53 2    
   104   52   54 am   BACKBONE|DICT|INTERRES
   105   54   55 1    
   106   54  120 1    
   107   55   56 1    
   108   55   57 1    
   109   55  121 1    
   110   56  122 1    
   111   56  123 1    
   112   56  124 1    
   113   57   58 2    
   114   57   59 am   BACKBONE|DICT|INTERRES
   115   59   60 1    
   116   59  125 1    
   117   60   61 1    
   118   60   62 1    
   119   60  126 1    
   120   61  127 1    
   121   61  128 1    
   122   61  129 1    
   123   62   63 2    
   124   62   64 am   BACKBONE|DICT|INTERRES
   125   64   65 1    
   126   64  130 1    
   127   65   66 1    
   128   65   69 1    
   129   65  131 1    
   130   66   67 am   BACKBONE|DICT|INTERRES
   131   66   68 2    
   132   67  132 1    
   133   67  133 1    
   134   69   70 1    
   135   69  134 1    
   136   69  135 1    
   137   70   71 1    
   138   71  136 1    
   139   71  137 1    
@<TRIPOS>SUBSTRUCTURE
     1 UNK         1 GROUP             0       ****    0 ROOT    
