@<TRIPOS>MOLECULE
3R137
137   139    1
SMALL
USER_CHARGES


@<TRIPOS>ATOM
      1 CA         24.8699   -2.9835    3.5212 C.3       0 UNK        -0.2020 
      2 C          26.2788   -2.8468    2.9636 C.2       0 UNK         0.4855 
      3 O          27.1911   -2.4540    3.6913 O.2       0 UNK        -0.5197 
      4 N          26.4640   -3.1657    1.6796 N.am      1 UNK        -0.4892 
      5 CA         27.7304   -3.0750    0.9589 C.3       1 UNK         0.0835 
      6 C6         28.5982   -4.3432    1.1732 C.3       12 UNK        -0.0855 
      7 S7         30.2179   -4.2876    0.3261 S.3       12 UNK        -0.2931 
      8 C8         29.9399   -5.3776   -1.1213 C.3       12 UNK         0.0378 
      9 C9         30.2764   -4.7425   -2.4724 C.ar      12 UNK        -0.0802 
     10 C10        31.3299   -3.8296   -2.6139 C.ar      12 UNK        -0.0944 
     11 C11        31.6628   -3.2934   -3.8617 C.ar      12 UNK        -0.0787 
     12 C12        30.9342   -3.7029   -4.9850 C.ar      12 UNK        -0.0862 
     13 C13        29.8685   -4.5984   -4.8666 C.ar      12 UNK        -0.0733 
     14 C14        29.5463   -5.1162   -3.6081 C.ar      12 UNK        -0.0832 
     15 C15        29.0907   -5.0195   -6.1106 C.3       12 UNK         0.0240 
     16 S16        27.6415   -3.9582   -6.4386 S.3       12 UNK        -0.2522 
     17 C17        28.4148   -2.3124   -6.5622 C.3       12 UNK        -0.0967 
     18 CA         27.5789   -1.2495   -7.3132 C.3       5 UNK         0.0660 
     19 N          26.2107   -1.0972   -6.8000 N.am      5 UNK        -0.4015 
     20 C          25.2605   -0.3503   -7.3878 C.2       4 UNK         0.4946 
     21 O          25.4487    0.2850   -8.4265 O.2       4 UNK        -0.5353 
     22 CA         23.8921   -0.2326   -6.6917 C.3       4 UNK         0.0277 
     23 CB         22.9315   -1.3076   -7.2227 C.3       4 UNK        -0.1981 
     24 N          23.9535   -0.3098   -5.2298 N.am      4 UNK        -0.4209 
     25 C          24.6467    0.5219   -4.4390 C.2       3 UNK         0.4942 
     26 O          25.2876    1.4855   -4.8585 O.2       3 UNK        -0.5208 
     27 CA         24.7096    0.1825   -2.9358 C.3       3 UNK         0.0250 
     28 CB         23.6081   -0.7938   -2.4632 C.3       3 UNK        -0.1990 
     29 N          26.0353   -0.3295   -2.5617 N.am      3 UNK        -0.4232 
     30 C          26.6926   -1.3391   -3.1541 C.2       2 UNK         0.4993 
     31 O          26.2438   -2.0019   -4.0887 O.2       2 UNK        -0.5286 
     32 CA         28.0900   -1.6675   -2.6125 C.3       2 UNK         0.0209 
     33 CB         29.0934   -0.5494   -2.9531 C.3       2 UNK        -0.1931 
     34 N          28.1313   -1.9427   -1.1738 N.am      2 UNK        -0.4546 
     35 C          27.3830   -2.8441   -0.5195 C.2       1 UNK         0.5154 
     36 O          26.4728   -3.5053   -1.0261 O.2       1 UNK        -0.5181 
     37 C          28.3598    0.0804   -7.3274 C.2       5 UNK         0.5014 
     38 O          29.2813    0.2190   -8.1335 O.2       5 UNK        -0.5248 
     39 N          27.9841    1.0447   -6.4717 N.am      6 UNK        -0.4434 
     40 CA         28.5760    2.3838   -6.4496 C.3       6 UNK         0.0363 
     41 CB         28.1449    3.1288   -5.1779 C.3       6 UNK        -0.1936 
     42 C          28.2512    3.2077   -7.7084 C.2       6 UNK         0.5081 
     43 O          29.0159    4.1132   -8.0382 O.2       6 UNK        -0.5248 
     44 N          27.1532    2.8671   -8.3967 N.am      7 UNK        -0.4718 
     45 CA         26.7730    3.4336   -9.6880 C.3       7 UNK         0.0273 
     46 CB         25.2601    3.7111   -9.6977 C.3       7 UNK        -0.1935 
     47 C          27.1589    2.4864  -10.8332 C.2       7 UNK         0.5018 
     48 O          27.7709    2.9337  -11.8027 O.2       7 UNK        -0.5186 
     49 N          26.7894    1.2025  -10.7104 N.am      8 UNK        -0.4240 
     50 CA         26.9145    0.1982  -11.7700 C.3       8 UNK         0.0235 
     51 CB         26.0515   -1.0254  -11.4202 C.3       8 UNK        -0.2000 
     52 C          28.3589   -0.2315  -12.0696 C.2       8 UNK         0.4941 
     53 O          28.6876   -0.4352  -13.2390 O.2       8 UNK        -0.5273 
     54 N          29.1848   -0.3740  -11.0248 N.am      9 UNK        -0.4262 
     55 CA         30.5800   -0.8181  -11.1216 C.3       9 UNK         0.0264 
     56 CB         30.7608   -2.0679  -10.2399 C.3       9 UNK        -0.1955 
     57 C          31.5757    0.2827  -10.7166 C.2       9 UNK         0.5031 
     58 O          32.7818    0.0366  -10.7648 O.2       9 UNK        -0.5390 
     59 N          31.0667    1.4563  -10.3071 N.am      10 UNK        -0.4204 
     60 CA         31.7982    2.5984   -9.7432 C.3       10 UNK         0.0237 
     61 CB         32.7077    3.2513  -10.8065 C.3       10 UNK        -0.1985 
     62 C          32.5484    2.2487   -8.4395 C.2       10 UNK         0.4970 
     63 O          33.6157    2.8064   -8.1791 O.2       10 UNK        -0.4914 
     64 N          31.9824    1.3272   -7.6470 N.am      11 UNK        -0.4285 
     65 CA         32.5807    0.7793   -6.4178 C.3       11 UNK         0.1007 
     66 C          32.5145    1.7077   -5.1660 C.2       11 UNK         0.5703 
     67 N          32.0266    2.9381   -5.2685 N.am      11 UNK        -0.7361 
     68 O          32.9235    1.3113   -4.0781 O.2       11 UNK        -0.4986 
     69 C69        32.0467   -0.6556   -6.1383 C.3       12 UNK        -0.0947 
     70 S70        33.3664   -1.8003   -5.6052 S.3       12 UNK        -0.2240 
     71 C71        32.8119   -2.2818   -3.9316 C.3       12 UNK         0.0194 
     72 H72        24.1665   -3.3424    2.7699 H         1 UNK         0.0906 
     73 H73        24.8628   -3.6856    4.3545 H         1 UNK         0.0906 
     74 H74        24.5149   -2.0195    3.8848 H         1 UNK         0.0906 
     75 H75        25.6864   -3.4573    1.0985 H         1 UNK         0.3140 
     76 H76        28.2799   -2.2036    1.3235 H         1 UNK         0.1085 
     77 H77        28.8006   -4.4617    2.2388 H         1 UNK         0.0836 
     78 H78        28.0483   -5.2405    0.8843 H         1 UNK         0.0836 
     79 H79        30.5517   -6.2724   -0.9999 H         1 UNK         0.0731 
     80 H80        28.9041   -5.7187   -1.1329 H         1 UNK         0.0731 
     81 H81        31.9062   -3.5355   -1.7478 H         1 UNK         0.1312 
     82 H82        31.1841   -3.3280   -5.9651 H         1 UNK         0.1406 
     83 H83        28.7303   -5.8208   -3.5175 H         1 UNK         0.1631 
     84 H84        28.7512   -6.0506   -6.0021 H         1 UNK         0.0717 
     85 H85        29.7445   -5.0096   -6.9842 H         1 UNK         0.0717 
     86 H86        29.3726   -2.4344   -7.0699 H         1 UNK         0.0934 
     87 H87        28.6445   -1.9804   -5.5505 H         1 UNK         0.0934 
     88 H88        27.4921   -1.5746   -8.3514 H         1 UNK         0.0739 
     89 H89        26.0135   -1.5630   -5.9156 H         1 UNK         0.3093 
     90 H90        23.4846    0.7474   -6.9487 H         1 UNK         0.0818 
     91 H91        21.9272   -1.1784   -6.8189 H         1 UNK         0.0819 
     92 H92        22.8505   -1.2552   -8.3096 H         1 UNK         0.0819 
     93 H93        23.2704   -2.3132   -6.9696 H         1 UNK         0.0819 
     94 H94        23.5018   -1.1027   -4.7975 H         1 UNK         0.3041 
     95 H95        24.5706    1.1247   -2.4035 H         1 UNK         0.0784 
     96 H96        22.6146   -0.4285   -2.7274 H         1 UNK         0.0793 
     97 H97        23.7243   -1.7910   -2.8896 H         1 UNK         0.0793 
     98 H98        23.6283   -0.9030   -1.3788 H         1 UNK         0.0793 
     99 H99        26.5013    0.1615   -1.8119 H         1 UNK         0.3024 
    100 H100       28.4132   -2.5778   -3.1200 H         1 UNK         0.1171 
    101 H101       28.8999    0.3596   -2.3829 H         1 UNK         0.0786 
    102 H102       29.0517   -0.2803   -4.0085 H         1 UNK         0.0786 
    103 H103       30.1164   -0.8619   -2.7435 H         1 UNK         0.0786 
    104 H104       28.8619   -1.4728   -0.6588 H         1 UNK         0.2977 
    105 H105       27.1818    0.8962   -5.8702 H         1 UNK         0.3127 
    106 H106       29.6573    2.2615   -6.4129 H         1 UNK         0.0770 
    107 H107       27.0790    3.3572   -5.1843 H         1 UNK         0.0814 
    108 H108       28.6768    4.0767   -5.0873 H         1 UNK         0.0814 
    109 H109       28.3621    2.5486   -4.2810 H         1 UNK         0.0814 
    110 H110       26.5923    2.0928   -8.0623 H         1 UNK         0.2983 
    111 H111       27.2884    4.3828   -9.8523 H         1 UNK         0.0947 
    112 H112       24.9453    4.1243  -10.6570 H         1 UNK         0.0806 
    113 H113       24.9882    4.4348   -8.9292 H         1 UNK         0.0806 
    114 H114       24.6763    2.8062   -9.5239 H         1 UNK         0.0806 
    115 H115       26.2776    0.9149   -9.8766 H         1 UNK         0.3000 
    116 H116       26.5122    0.6373  -12.6858 H         1 UNK         0.0850 
    117 H117       26.0890   -1.7708  -12.2159 H         1 UNK         0.0810 
    118 H118       25.0058   -0.7476  -11.2861 H         1 UNK         0.0810 
    119 H119       26.3866   -1.5104  -10.5033 H         1 UNK         0.0810 
    120 H120       28.8480   -0.1788  -10.0883 H         1 UNK         0.3040 
    121 H121       30.8253   -1.0949  -12.1488 H         1 UNK         0.0766 
    122 H122       31.7729   -2.4655  -10.3258 H         1 UNK         0.0812 
    123 H123       30.5873   -1.8503   -9.1867 H         1 UNK         0.0812 
    124 H124       30.0762   -2.8633  -10.5348 H         1 UNK         0.0812 
    125 H125       30.0609    1.5444  -10.3114 H         1 UNK         0.3205 
    126 H126       31.0449    3.3360   -9.4687 H         1 UNK         0.0754 
    127 H127       33.1376    4.1825  -10.4353 H         1 UNK         0.0769 
    128 H128       32.1493    3.4927  -11.7110 H         1 UNK         0.0769 
    129 H129       33.5366    2.6007  -11.0872 H         1 UNK         0.0769 
    130 H130       31.0877    0.9318   -7.9199 H         1 UNK         0.2981 
    131 H131       33.6478    0.6940   -6.6319 H         1 UNK         0.0541 
    132 H132       31.7407    3.3041   -6.1613 H         1 UNK         0.3459 
    133 H133       32.0023    3.5240   -4.4493 H         1 UNK         0.3459 
    134 H134       31.6288   -1.0901   -7.0474 H         1 UNK         0.0612 
    135 H135       31.2262   -0.6476   -5.4185 H         1 UNK         0.0612 
    136 H136       33.6737   -2.7033   -3.4124 H         1 UNK         0.0624 
    137 H137       32.5320   -1.3836   -3.3798 H         1 UNK         0.0624 
@<TRIPOS>BOND
     1    1    2 1    
     2    1   72 1    
     3    1   73 1    
     4    1   74 1    
     5    2    3 2    
     6    2    4 am   BACKBONE|DICT|INTERRES
     7    4    5 1    
     8    4   75 1    
     9    5    6 1    
    10    5   35 1    
    11    5   76 1    
    12    6    7 1    
    13    6   77 1    
    14    6   78 1    
    15    7    8 1    
    16    8    9 1    
    17    8   79 1    
    18    8   80 1    
    19    9   10 ar   
    20    9   14 ar   
    21   10   11 ar   
    22   10   81 1    
    23   11   12 ar   
    24   11   71 1    
    25   12   13 ar   
    26   12   82 1    
    27   13   14 ar   
    28   13   15 1    
    29   14   83 1    
    30   15   16 1    
    31   15   84 1    
    32   15   85 1    
    33   16   17 1    
    34   17   18 1    
    35   17   86 1    
    36   17   87 1    
    37   18   19 1    
    38   18   37 1    
    39   18   88 1    
    40   19   20 am   BACKBONE|DICT|INTERRES
    41   19   89 1    
    42   20   21 2    
    43   20   22 1    
    44   22   23 1    
    45   22   24 1    
    46   22   90 1    
    47   23   91 1    
    48   23   92 1    
    49   23   93 1    
    50   24   25 am   BACKBONE|DICT|INTERRES
    51   24   94 1    
    52   25   26 2    
    53   25   27 1    
    54   27   28 1    
    55   27   29 1    
    56   27   95 1    
    57   28   96 1    
    58   28   97 1    
    59   28   98 1    
    60   29   30 am   BACKBONE|DICT|INTERRES
    61   29   99 1    
    62   30   31 2    
    63   30   32 1    
    64   32   33 1    
    65   32   34 1    
    66   32  100 1    
    67   33  101 1    
    68   33  102 1    
    69   33  103 1    
    70   34   35 am   BACKBONE|DICT|INTERRES
    71   34  104 1    
    72   35   36 2    
    73   37   38 2    
    74   37   39 am   BACKBONE|DICT|INTERRES
    75   39   40 1    
    76   39  105 1    
    77   40   41 1    
    78   40   42 1    
    79   40  106 1    
    80   41  107 1    
    81   41  108 1    
    82   41  109 1    
    83   42   43 2    
    84   42   44 am   BACKBONE|DICT|INTERRES
    85   44   45 1    
    86   44  110 1    
    87   45   46 1    
    88   45   47 1    
    89   45  111 1    
    90   46  112 1    
    91   46  113 1    
    92   46  114 1    
    93   47   48 2    
    94   47   49 am   BACKBONE|DICT|INTERRES
    95   49   50 1    
    96   49  115 1    
    97   50   51 1    
    98   50   52 1    
    99   50  116 1    
   100   51  117 1    
   101   51  118 1    
   102   51  119 1    
   103   52   53 2    
   104   52   54 am   BACKBONE|DICT|INTERRES
   105   54   55 1    
   106   54  120 1    
   107   55   56 1    
   108   55   57 1    
   109   55  121 1    
   110   56  122 1    
   111   56  123 1    
   112   56  124 1    
   113   57   58 2    
   114   57   59 am   BACKBONE|DICT|INTERRES
   115   59   60 1    
   116   59  125 1    
   117   60   61 1    
   118   60   62 1    
   119   60  126 1    
   120   61  127 1    
   121   61  128 1    
   122   61  129 1    
   123   62   63 2    
   124   62   64 am   BACKBONE|DICT|INTERRES
   125   64   65 1    
   126   64  130 1    
   127   65   66 1    
   128   65   69 1    
   129   65  131 1    
   130   66   67 am   BACKBONE|DICT|INTERRES
   131   66   68 2    
   132   67  132 1    
   133   67  133 1    
   134   69   70 1    
   135   69  134 1    
   136   69  135 1    
   137   70   71 1    
   138   71  136 1    
   139   71  137 1    
@<TRIPOS>SUBSTRUCTURE
     1 UNK         1 GROUP             0       ****    0 ROOT    
