@<TRIPOS>MOLECULE
3R137
137   139    1
SMALL
USER_CHARGES


@<TRIPOS>ATOM
      1 CA         22.9046   -4.6245   -0.6559 C.3       0 UNK        -0.2020 
      2 C          24.2834   -4.0094   -0.4722 C.2       0 UNK         0.4855 
      3 O          24.4070   -2.9627    0.1645 O.2       0 UNK        -0.5197 
      4 N          25.3241   -4.6501   -1.0213 N.am      1 UNK        -0.4892 
      5 CA         26.7030   -4.1505   -1.0038 C.3       1 UNK         0.0835 
      6 C6         27.7142   -5.2645   -1.3705 C.3       12 UNK        -0.0855 
      7 S7         29.3946   -4.9052   -0.7480 S.3       12 UNK        -0.2931 
      8 C8         30.4401   -5.2488   -2.2010 C.3       12 UNK         0.0378 
      9 C9         30.2491   -4.2214   -3.3076 C.ar      12 UNK        -0.0802 
     10 C10        30.8630   -2.9668   -3.2206 C.ar      12 UNK        -0.0944 
     11 C11        30.6837   -2.0194   -4.2337 C.ar      12 UNK        -0.0787 
     12 C12        29.8747   -2.3319   -5.3294 C.ar      12 UNK        -0.0862 
     13 C13        29.2844   -3.5913   -5.4439 C.ar      12 UNK        -0.0733 
     14 C14        29.4750   -4.5329   -4.4299 C.ar      12 UNK        -0.0832 
     15 C15        28.4553   -3.9412   -6.6683 C.3       12 UNK         0.0240 
     16 S16        26.6797   -3.8211   -6.3053 S.3       12 UNK        -0.2522 
     17 C17        26.0940   -2.6686   -7.5961 C.3       12 UNK        -0.0967 
     18 CA         25.9349   -1.1972   -7.1125 C.3       5 UNK         0.0660 
     19 N          25.1591   -1.0940   -5.8671 N.am      5 UNK        -0.4015 
     20 C          23.8262   -1.2633   -5.8482 C.2       4 UNK         0.4946 
     21 O          23.1262   -1.2429   -6.8626 O.2       4 UNK        -0.5353 
     22 CA         23.1359   -1.5617   -4.5069 C.3       4 UNK         0.0277 
     23 CB         23.0172   -3.0813   -4.3016 C.3       4 UNK        -0.1981 
     24 N          23.8205   -0.9713   -3.3598 N.am      4 UNK        -0.4209 
     25 C          23.5505    0.2508   -2.8769 C.2       3 UNK         0.4942 
     26 O          22.6727    0.9855   -3.3324 O.2       3 UNK        -0.5208 
     27 CA         24.3930    0.7577   -1.6888 C.3       3 UNK         0.0250 
     28 CB         23.6111    0.6116   -0.3734 C.3       3 UNK        -0.1990 
     29 N          25.6983    0.1062   -1.5490 N.am      3 UNK        -0.4232 
     30 C          26.6623    0.1322   -2.4792 C.2       2 UNK         0.4993 
     31 O          26.5445    0.7049   -3.5613 O.2       2 UNK        -0.5286 
     32 CA         27.9303   -0.6908   -2.1986 C.3       2 UNK         0.0209 
     33 CB         28.9560    0.1343   -1.4050 C.3       2 UNK        -0.1931 
     34 N          27.6769   -1.9521   -1.4952 N.am      2 UNK        -0.4546 
     35 C          26.8389   -2.9108   -1.9126 C.2       1 UNK         0.5154 
     36 O          26.1689   -2.8278   -2.9456 O.2       1 UNK        -0.5181 
     37 C          27.2490   -0.3879   -7.1614 C.2       5 UNK         0.5014 
     38 O          28.0113   -0.5736   -8.1139 O.2       5 UNK        -0.5248 
     39 N          27.4961    0.5491   -6.2297 N.am      6 UNK        -0.4434 
     40 CA         28.6524    1.4666   -6.2843 C.3       6 UNK         0.0363 
     41 CB         28.7377    2.2997   -4.9955 C.3       6 UNK        -0.1936 
     42 C          28.6647    2.4138   -7.5000 C.2       6 UNK         0.5081 
     43 O          29.7232    2.9379   -7.8416 O.2       6 UNK        -0.5248 
     44 N          27.4992    2.6243   -8.1259 N.am      7 UNK        -0.4718 
     45 CA         27.3565    3.3690   -9.3783 C.3       7 UNK         0.0273 
     46 CB         25.9072    3.8691   -9.4967 C.3       7 UNK        -0.1935 
     47 C          27.7400    2.5400  -10.6197 C.2       7 UNK         0.5018 
     48 O          28.0039    3.1313  -11.6675 O.2       7 UNK        -0.5186 
     49 N          27.7362    1.2044  -10.4989 N.am      8 UNK        -0.4240 
     50 CA         28.0436    0.2693  -11.5816 C.3       8 UNK         0.0235 
     51 CB         27.0712   -0.9214  -11.5225 C.3       8 UNK        -0.2000 
     52 C          29.4982   -0.2123  -11.5035 C.2       8 UNK         0.4941 
     53 O          30.1847   -0.2253  -12.5265 O.2       8 UNK        -0.5273 
     54 N          29.9410   -0.6046  -10.3018 N.am      9 UNK        -0.4262 
     55 CA         31.3131   -1.0327  -10.0262 C.3       9 UNK         0.0264 
     56 CB         31.3170   -1.8587   -8.7327 C.3       9 UNK        -0.1955 
     57 C          32.2641    0.1676   -9.8935 C.2       9 UNK         0.5031 
     58 O          31.8231    1.2827   -9.6092 O.2       9 UNK        -0.5390 
     59 N          33.5702   -0.0864  -10.0391 N.am      10 UNK        -0.4204 
     60 CA         34.6446    0.9045   -9.9011 C.3       10 UNK         0.0237 
     61 CB         35.8717    0.4201  -10.6976 C.3       10 UNK        -0.1985 
     62 C          34.9804    1.2246   -8.4267 C.2       10 UNK         0.4970 
     63 O          36.1527    1.2068   -8.0463 O.2       10 UNK        -0.4914 
     64 N          33.9495    1.5024   -7.6208 N.am      11 UNK        -0.4285 
     65 CA         34.0565    1.8460   -6.1926 C.3       11 UNK         0.1007 
     66 C          34.3795    3.3448   -5.9246 C.2       11 UNK         0.5703 
     67 N          34.3871    4.2181   -6.9253 N.am      11 UNK        -0.7361 
     68 O          34.6445    3.7210   -4.7852 O.2       11 UNK        -0.4986 
     69 C69        32.8042    1.3882   -5.3991 C.3       12 UNK        -0.0947 
     70 S70        32.5602   -0.4156   -5.4769 S.3       12 UNK        -0.2240 
     71 C71        31.3412   -0.6504   -4.1481 C.3       12 UNK         0.0194 
     72 H72        22.9077   -5.4132   -1.4080 H         1 UNK         0.0906 
     73 H73        22.5560   -5.0493    0.2850 H         1 UNK         0.0906 
     74 H74        22.1916   -3.8621   -0.9686 H         1 UNK         0.0906 
     75 H75        25.1639   -5.4858   -1.5654 H         1 UNK         0.3140 
     76 H76        26.9034   -3.8368    0.0237 H         1 UNK         0.1085 
     77 H77        27.7205   -5.4508   -2.4450 H         1 UNK         0.0836 
     78 H78        27.4107   -6.2067   -0.9110 H         1 UNK         0.0836 
     79 H79        31.4853   -5.2496   -1.8882 H         1 UNK         0.0731 
     80 H80        30.2336   -6.2564   -2.5656 H         1 UNK         0.0731 
     81 H81        31.4734   -2.7289   -2.3602 H         1 UNK         0.1312 
     82 H82        29.7188   -1.5954   -6.1027 H         1 UNK         0.1406 
     83 H83        29.0118   -5.5065   -4.5157 H         1 UNK         0.1631 
     84 H84        28.6842   -4.9571   -6.9933 H         1 UNK         0.0717 
     85 H85        28.7217   -3.2893   -7.5005 H         1 UNK         0.0717 
     86 H86        25.1189   -3.0367   -7.9188 H         1 UNK         0.0934 
     87 H87        26.7189   -2.7450   -8.4872 H         1 UNK         0.0934 
     88 H88        25.3502   -0.6940   -7.8857 H         1 UNK         0.0739 
     89 H89        25.6763   -1.1449   -4.9995 H         1 UNK         0.3093 
     90 H90        22.1212   -1.1616   -4.5675 H         1 UNK         0.0818 
     91 H91        22.4725   -3.3163   -3.3881 H         1 UNK         0.0819 
     92 H92        22.4761   -3.5445   -5.1278 H         1 UNK         0.0819 
     93 H93        23.9942   -3.5628   -4.2461 H         1 UNK         0.0819 
     94 H94        24.5781   -1.5126   -2.9555 H         1 UNK         0.3041 
     95 H95        24.5779    1.8204   -1.8597 H         1 UNK         0.0784 
     96 H96        22.6503    1.1252   -0.4310 H         1 UNK         0.0793 
     97 H97        23.4070   -0.4341   -0.1402 H         1 UNK         0.0793 
     98 H98        24.1573    1.0435    0.4653 H         1 UNK         0.0793 
     99 H99        25.8540   -0.4299   -0.7070 H         1 UNK         0.3024 
    100 H100       28.3588   -0.9431   -3.1697 H         1 UNK         0.1171 
    101 H101       29.9035   -0.3967   -1.3125 H         1 UNK         0.0786 
    102 H102       28.5996    0.3611   -0.3994 H         1 UNK         0.0786 
    103 H103       29.1668    1.0854   -1.8940 H         1 UNK         0.0786 
    104 H104       28.2062   -2.1108   -0.6496 H         1 UNK         0.2977 
    105 H105       26.8770    0.6602   -5.4295 H         1 UNK         0.3127 
    106 H106       29.5551    0.8569   -6.3566 H         1 UNK         0.0770 
    107 H107       27.8320    2.8852   -4.8339 H         1 UNK         0.0814 
    108 H108       29.5760    2.9970   -5.0303 H         1 UNK         0.0814 
    109 H109       28.8888    1.6697   -4.1234 H         1 UNK         0.0814 
    110 H110       26.6680    2.1932   -7.7488 H         1 UNK         0.2983 
    111 H111       28.0169    4.2388   -9.3497 H         1 UNK         0.0947 
    112 H112       25.7706    4.4569  -10.4056 H         1 UNK         0.0806 
    113 H113       25.6381    4.5094   -8.6564 H         1 UNK         0.0806 
    114 H114       25.1951    3.0436   -9.5333 H         1 UNK         0.0806 
    115 H115       27.5887    0.7996   -9.5823 H         1 UNK         0.3000 
    116 H116       27.9067    0.7607  -12.5476 H         1 UNK         0.0850 
    117 H117       27.2701   -1.6262  -12.3310 H         1 UNK         0.0810 
    118 H118       26.0371   -0.5927  -11.6268 H         1 UNK         0.0810 
    119 H119       27.1542   -1.4708  -10.5846 H         1 UNK         0.0810 
    120 H120       29.3135   -0.5477   -9.5040 H         1 UNK         0.3040 
    121 H121       31.6587   -1.6637  -10.8479 H         1 UNK         0.0766 
    122 H122       30.9783   -1.2576   -7.8907 H         1 UNK         0.0812 
    123 H123       30.6664   -2.7289   -8.8137 H         1 UNK         0.0812 
    124 H124       32.3165   -2.2224   -8.4913 H         1 UNK         0.0812 
    125 H125       33.8602   -1.0364  -10.2236 H         1 UNK         0.3205 
    126 H126       34.3111    1.8404  -10.3548 H         1 UNK         0.0754 
    127 H127       36.6711    1.1623  -10.6774 H         1 UNK         0.0769 
    128 H128       35.6225    0.2482  -11.7450 H         1 UNK         0.0769 
    129 H129       36.2766   -0.5077  -10.2914 H         1 UNK         0.0769 
    130 H130       33.0189    1.5189   -8.0265 H         1 UNK         0.2981 
    131 H131       34.9062    1.2965   -5.7829 H         1 UNK         0.0541 
    132 H132       34.6048    5.1837   -6.7363 H         1 UNK         0.3459 
    133 H133       34.1662    3.9232   -7.8625 H         1 UNK         0.3459 
    134 H134       31.9077    1.8803   -5.7804 H         1 UNK         0.0612 
    135 H135       32.8912    1.6686   -4.3476 H         1 UNK         0.0612 
    136 H136       31.8325   -0.5098   -3.1842 H         1 UNK         0.0624 
    137 H137       30.5723    0.1161   -4.2208 H         1 UNK         0.0624 
@<TRIPOS>BOND
     1    1    2 1    
     2    1   72 1    
     3    1   73 1    
     4    1   74 1    
     5    2    3 2    
     6    2    4 am   BACKBONE|DICT|INTERRES
     7    4    5 1    
     8    4   75 1    
     9    5    6 1    
    10    5   35 1    
    11    5   76 1    
    12    6    7 1    
    13    6   77 1    
    14    6   78 1    
    15    7    8 1    
    16    8    9 1    
    17    8   79 1    
    18    8   80 1    
    19    9   10 ar   
    20    9   14 ar   
    21   10   11 ar   
    22   10   81 1    
    23   11   12 ar   
    24   11   71 1    
    25   12   13 ar   
    26   12   82 1    
    27   13   14 ar   
    28   13   15 1    
    29   14   83 1    
    30   15   16 1    
    31   15   84 1    
    32   15   85 1    
    33   16   17 1    
    34   17   18 1    
    35   17   86 1    
    36   17   87 1    
    37   18   19 1    
    38   18   37 1    
    39   18   88 1    
    40   19   20 am   BACKBONE|DICT|INTERRES
    41   19   89 1    
    42   20   21 2    
    43   20   22 1    
    44   22   23 1    
    45   22   24 1    
    46   22   90 1    
    47   23   91 1    
    48   23   92 1    
    49   23   93 1    
    50   24   25 am   BACKBONE|DICT|INTERRES
    51   24   94 1    
    52   25   26 2    
    53   25   27 1    
    54   27   28 1    
    55   27   29 1    
    56   27   95 1    
    57   28   96 1    
    58   28   97 1    
    59   28   98 1    
    60   29   30 am   BACKBONE|DICT|INTERRES
    61   29   99 1    
    62   30   31 2    
    63   30   32 1    
    64   32   33 1    
    65   32   34 1    
    66   32  100 1    
    67   33  101 1    
    68   33  102 1    
    69   33  103 1    
    70   34   35 am   BACKBONE|DICT|INTERRES
    71   34  104 1    
    72   35   36 2    
    73   37   38 2    
    74   37   39 am   BACKBONE|DICT|INTERRES
    75   39   40 1    
    76   39  105 1    
    77   40   41 1    
    78   40   42 1    
    79   40  106 1    
    80   41  107 1    
    81   41  108 1    
    82   41  109 1    
    83   42   43 2    
    84   42   44 am   BACKBONE|DICT|INTERRES
    85   44   45 1    
    86   44  110 1    
    87   45   46 1    
    88   45   47 1    
    89   45  111 1    
    90   46  112 1    
    91   46  113 1    
    92   46  114 1    
    93   47   48 2    
    94   47   49 am   BACKBONE|DICT|INTERRES
    95   49   50 1    
    96   49  115 1    
    97   50   51 1    
    98   50   52 1    
    99   50  116 1    
   100   51  117 1    
   101   51  118 1    
   102   51  119 1    
   103   52   53 2    
   104   52   54 am   BACKBONE|DICT|INTERRES
   105   54   55 1    
   106   54  120 1    
   107   55   56 1    
   108   55   57 1    
   109   55  121 1    
   110   56  122 1    
   111   56  123 1    
   112   56  124 1    
   113   57   58 2    
   114   57   59 am   BACKBONE|DICT|INTERRES
   115   59   60 1    
   116   59  125 1    
   117   60   61 1    
   118   60   62 1    
   119   60  126 1    
   120   61  127 1    
   121   61  128 1    
   122   61  129 1    
   123   62   63 2    
   124   62   64 am   BACKBONE|DICT|INTERRES
   125   64   65 1    
   126   64  130 1    
   127   65   66 1    
   128   65   69 1    
   129   65  131 1    
   130   66   67 am   BACKBONE|DICT|INTERRES
   131   66   68 2    
   132   67  132 1    
   133   67  133 1    
   134   69   70 1    
   135   69  134 1    
   136   69  135 1    
   137   70   71 1    
   138   71  136 1    
   139   71  137 1    
@<TRIPOS>SUBSTRUCTURE
     1 UNK         1 GROUP             0       ****    0 ROOT    
