@<TRIPOS>MOLECULE
3R137
137   139    1
SMALL
USER_CHARGES


@<TRIPOS>ATOM
      1 CA         26.6637   -6.7378    0.0404 C.3       0 UNK        -0.2020 
      2 C          26.7362   -5.2806    0.4713 C.2       0 UNK         0.4855 
      3 O          26.1277   -4.9068    1.4741 O.2       0 UNK        -0.5197 
      4 N          27.4758   -4.4551   -0.2803 N.am      1 UNK        -0.4892 
      5 CA         27.6522   -3.0189   -0.0209 C.3       1 UNK         0.0835 
      6 C6         28.8782   -2.4457   -0.7711 C.3       12 UNK        -0.0855 
      7 S7         30.4547   -3.1348   -0.1609 S.3       12 UNK        -0.2931 
      8 C8         30.8495   -4.4111   -1.4029 C.3       12 UNK         0.0378 
      9 C9         30.9748   -3.8508   -2.8142 C.ar      12 UNK        -0.0802 
     10 C10        31.9201   -2.8596   -3.0987 C.ar      12 UNK        -0.0944 
     11 C11        32.0565   -2.3585   -4.3959 C.ar      12 UNK        -0.0787 
     12 C12        31.2355   -2.8611   -5.4085 C.ar      12 UNK        -0.0862 
     13 C13        30.2767   -3.8430   -5.1435 C.ar      12 UNK        -0.0733 
     14 C14        30.1597   -4.3415   -3.8408 C.ar      12 UNK        -0.0832 
     15 C15        29.4291   -4.3809   -6.2962 C.3       12 UNK         0.0240 
     16 S16        27.7078   -4.8175   -5.8666 S.3       12 UNK        -0.2522 
     17 C17        27.0014   -3.2281   -5.3233 C.3       12 UNK        -0.0967 
     18 CA         26.5944   -2.2959   -6.5015 C.3       5 UNK         0.0660 
     19 N          25.2721   -1.6930   -6.3086 N.am      5 UNK        -0.4015 
     20 C          24.5883   -1.0234   -7.2500 C.2       4 UNK         0.4946 
     21 O          24.9694   -0.8923   -8.4128 O.2       4 UNK        -0.5353 
     22 CA         23.2701   -0.3560   -6.8181 C.3       4 UNK         0.0277 
     23 CB         22.0942   -1.3317   -6.9835 C.3       4 UNK        -0.1981 
     24 N          23.3004    0.1450   -5.4418 N.am      4 UNK        -0.4209 
     25 C          24.0981    1.1324   -5.0088 C.2       3 UNK         0.4942 
     26 O          24.8529    1.7719   -5.7378 O.2       3 UNK        -0.5208 
     27 CA         24.1020    1.4134   -3.4973 C.3       3 UNK         0.0250 
     28 CB         23.0211    2.4447   -3.1371 C.3       3 UNK        -0.1990 
     29 N          23.9302    0.2091   -2.6768 N.am      3 UNK        -0.4232 
     30 C          24.7515   -0.8498   -2.6943 C.2       2 UNK         0.4993 
     31 O          25.7337   -0.9479   -3.4370 O.2       2 UNK        -0.5286 
     32 CA         24.3663   -2.0259   -1.7840 C.3       2 UNK         0.0209 
     33 CB         23.4949   -3.0331   -2.5527 C.3       2 UNK        -0.1931 
     34 N          25.5517   -2.7122   -1.2723 N.am      2 UNK        -0.4546 
     35 C          26.3927   -2.1967   -0.3645 C.2       1 UNK         0.5154 
     36 O          26.2068   -1.1158    0.1980 O.2       1 UNK        -0.5181 
     37 C          27.6418   -1.1930   -6.7269 C.2       5 UNK         0.5014 
     38 O          28.3723   -1.2331   -7.7181 O.2       5 UNK        -0.5248 
     39 N          27.6511   -0.2056   -5.8190 N.am      6 UNK        -0.4434 
     40 CA         28.5294    0.9618   -5.8718 C.3       6 UNK         0.0363 
     41 CB         28.3583    1.7995   -4.5957 C.3       6 UNK        -0.1936 
     42 C          28.3177    1.8165   -7.1314 C.2       6 UNK         0.5081 
     43 O          29.2980    2.2008   -7.7652 O.2       6 UNK        -0.5248 
     44 N          27.0535    2.0666   -7.4997 N.am      7 UNK        -0.4718 
     45 CA         26.6730    2.8040   -8.7076 C.3       7 UNK         0.0273 
     46 CB         25.1562    3.0504   -8.7090 C.3       7 UNK        -0.1935 
     47 C          27.1059    2.1095  -10.0094 C.2       7 UNK         0.5018 
     48 O          27.5363    2.7947  -10.9378 O.2       7 UNK        -0.5186 
     49 N          26.9927    0.7745  -10.0556 N.am      8 UNK        -0.4240 
     50 CA         27.4167   -0.0413  -11.1935 C.3       8 UNK         0.0235 
     51 CB         26.7919   -1.4425  -11.0903 C.3       8 UNK        -0.2000 
     52 C          28.9456   -0.1374  -11.3131 C.2       8 UNK         0.4941 
     53 O          29.4768    0.0308  -12.4117 O.2       8 UNK        -0.5273 
     54 N          29.6211   -0.4299  -10.1943 N.am      9 UNK        -0.4262 
     55 CA         31.0605   -0.6936  -10.1575 C.3       9 UNK         0.0264 
     56 CB         31.3688   -1.5556   -8.9277 C.3       9 UNK        -0.1955 
     57 C          31.9352    0.5672  -10.1171 C.2       9 UNK         0.5031 
     58 O          33.1119    0.4749  -10.4684 O.2       9 UNK        -0.5390 
     59 N          31.3977    1.6861   -9.6099 N.am      10 UNK        -0.4204 
     60 CA         32.0645    2.9555   -9.2741 C.3       10 UNK         0.0237 
     61 CB         32.7838    3.5787  -10.4871 C.3       10 UNK        -0.1985 
     62 C          32.9926    2.8720   -8.0440 C.2       10 UNK         0.4970 
     63 O          33.0863    3.8542   -7.3062 O.2       10 UNK        -0.4914 
     64 N          33.6327    1.7144   -7.8329 N.am      11 UNK        -0.4285 
     65 CA         34.5454    1.3872   -6.7258 C.3       11 UNK         0.1007 
     66 C          35.8562    2.2345   -6.7470 C.2       11 UNK         0.5703 
     67 N          36.5994    2.2970   -5.6493 N.am      11 UNK        -0.7361 
     68 O          36.2443    2.7962   -7.7705 O.2       11 UNK        -0.4986 
     69 C69        33.8356    1.3514   -5.3364 C.3       12 UNK        -0.0947 
     70 S70        32.3730    0.2589   -5.2806 S.3       12 UNK        -0.2240 
     71 C71        33.1123   -1.3046   -4.7106 C.3       12 UNK         0.0194 
     72 H72        25.6303   -7.0178   -0.1628 H         1 UNK         0.0906 
     73 H73        27.2497   -6.9289   -0.8585 H         1 UNK         0.0906 
     74 H74        27.0413   -7.3822    0.8338 H         1 UNK         0.0906 
     75 H75        27.9624   -4.8184   -1.0859 H         1 UNK         0.3140 
     76 H76        27.8206   -2.8886    1.0509 H         1 UNK         0.1085 
     77 H77        28.9385   -1.3642   -0.6304 H         1 UNK         0.0836 
     78 H78        28.7807   -2.5953   -1.8476 H         1 UNK         0.0836 
     79 H79        31.7943   -4.8824   -1.1290 H         1 UNK         0.0731 
     80 H80        30.0961   -5.1982   -1.3580 H         1 UNK         0.0731 
     81 H81        32.5538   -2.4853   -2.3061 H         1 UNK         0.1312 
     82 H82        31.3546   -2.4899   -6.4125 H         1 UNK         0.1406 
     83 H83        29.4398   -5.1201   -3.6298 H         1 UNK         0.1631 
     84 H84        29.9185   -5.2731   -6.6884 H         1 UNK         0.0717 
     85 H85        29.4049   -3.6648   -7.1182 H         1 UNK         0.0717 
     86 H86        26.1231   -3.4874   -4.7311 H         1 UNK         0.0934 
     87 H87        27.6777   -2.7478   -4.6123 H         1 UNK         0.0934 
     88 H88        26.5361   -2.8839   -7.4204 H         1 UNK         0.0739 
     89 H89        24.9320   -1.6704   -5.3572 H         1 UNK         0.3093 
     90 H90        23.1019    0.4967   -7.4793 H         1 UNK         0.0818 
     91 H91        21.1423   -0.8472   -6.7650 H         1 UNK         0.0819 
     92 H92        22.0382   -1.7029   -8.0079 H         1 UNK         0.0819 
     93 H93        22.1896   -2.1983   -6.3280 H         1 UNK         0.0819 
     94 H94        22.7008   -0.3146   -4.7722 H         1 UNK         0.3041 
     95 H95        25.0765    1.8398   -3.2498 H         1 UNK         0.0784 
     96 H96        23.1426    3.3569   -3.7234 H         1 UNK         0.0793 
     97 H97        22.0169    2.0650   -3.3299 H         1 UNK         0.0793 
     98 H98        23.0777    2.7289   -2.0861 H         1 UNK         0.0793 
     99 H99        23.1393    0.2033   -2.0481 H         1 UNK         0.3024 
    100 H100       23.7988   -1.6442   -0.9319 H         1 UNK         0.1171 
    101 H101       22.5831   -2.5625   -2.9229 H         1 UNK         0.0786 
    102 H102       23.1902   -3.8613   -1.9123 H         1 UNK         0.0786 
    103 H103       24.0182   -3.4518   -3.4129 H         1 UNK         0.0786 
    104 H104       25.7881   -3.5985   -1.6918 H         1 UNK         0.2977 
    105 H105       27.0069   -0.2633   -5.0373 H         1 UNK         0.3127 
    106 H106       29.5544    0.5901   -5.9006 H         1 UNK         0.0770 
    107 H107       27.3429    2.1847   -4.4976 H         1 UNK         0.0814 
    108 H108       29.0345    2.6555   -4.6008 H         1 UNK         0.0814 
    109 H109       28.5838    1.2137   -3.7044 H         1 UNK         0.0814 
    110 H110       26.2945    1.7701   -6.8884 H         1 UNK         0.2983 
    111 H111       27.1756    3.7731   -8.6722 H         1 UNK         0.0947 
    112 H112       24.8511    3.6120   -9.5930 H         1 UNK         0.0806 
    113 H113       24.8474    3.6267   -7.8367 H         1 UNK         0.0806 
    114 H114       24.5972    2.1140   -8.7063 H         1 UNK         0.0806 
    115 H115       26.5910    0.2850   -9.2632 H         1 UNK         0.3000 
    116 H116       27.0413    0.4264  -12.1064 H         1 UNK         0.0850 
    117 H117       27.0982   -2.0711  -11.9274 H         1 UNK         0.0810 
    118 H118       25.7031   -1.3908  -11.1049 H         1 UNK         0.0810 
    119 H119       27.0874   -1.9516  -10.1718 H         1 UNK         0.0810 
    120 H120       29.1054   -0.5866   -9.3293 H         1 UNK         0.3040 
    121 H121       31.3375   -1.2613  -11.0486 H         1 UNK         0.0766 
    122 H122       32.4246   -1.8271   -8.8867 H         1 UNK         0.0812 
    123 H123       30.7924   -2.4807   -8.9338 H         1 UNK         0.0812 
    124 H124       31.1320   -1.0117   -8.0125 H         1 UNK         0.0812 
    125 H125       30.4495    1.6273   -9.2462 H         1 UNK         0.3205 
    126 H126       31.2562    3.6346   -8.9982 H         1 UNK         0.0754 
    127 H127       33.1338    4.5846  -10.2519 H         1 UNK         0.0769 
    128 H128       32.1169    3.6589  -11.3456 H         1 UNK         0.0769 
    129 H129       33.6564    2.9998  -10.7902 H         1 UNK         0.0769 
    130 H130       33.5530    1.0128   -8.5589 H         1 UNK         0.2981 
    131 H131       34.8804    0.3719   -6.9387 H         1 UNK         0.0541 
    132 H132       37.4567    2.8269   -5.6706 H         1 UNK         0.3459 
    133 H133       36.3206    1.8298   -4.8014 H         1 UNK         0.3459 
    134 H134       33.5133    2.3543   -5.0527 H         1 UNK         0.0612 
    135 H135       34.5237    1.0280   -4.5548 H         1 UNK         0.0612 
    136 H136       33.7264   -1.1091   -3.8303 H         1 UNK         0.0624 
    137 H137       33.7835   -1.6849   -5.4817 H         1 UNK         0.0624 
@<TRIPOS>BOND
     1    1    2 1    
     2    1   72 1    
     3    1   73 1    
     4    1   74 1    
     5    2    3 2    
     6    2    4 am   BACKBONE|DICT|INTERRES
     7    4    5 1    
     8    4   75 1    
     9    5    6 1    
    10    5   35 1    
    11    5   76 1    
    12    6    7 1    
    13    6   77 1    
    14    6   78 1    
    15    7    8 1    
    16    8    9 1    
    17    8   79 1    
    18    8   80 1    
    19    9   10 ar   
    20    9   14 ar   
    21   10   11 ar   
    22   10   81 1    
    23   11   12 ar   
    24   11   71 1    
    25   12   13 ar   
    26   12   82 1    
    27   13   14 ar   
    28   13   15 1    
    29   14   83 1    
    30   15   16 1    
    31   15   84 1    
    32   15   85 1    
    33   16   17 1    
    34   17   18 1    
    35   17   86 1    
    36   17   87 1    
    37   18   19 1    
    38   18   37 1    
    39   18   88 1    
    40   19   20 am   BACKBONE|DICT|INTERRES
    41   19   89 1    
    42   20   21 2    
    43   20   22 1    
    44   22   23 1    
    45   22   24 1    
    46   22   90 1    
    47   23   91 1    
    48   23   92 1    
    49   23   93 1    
    50   24   25 am   BACKBONE|DICT|INTERRES
    51   24   94 1    
    52   25   26 2    
    53   25   27 1    
    54   27   28 1    
    55   27   29 1    
    56   27   95 1    
    57   28   96 1    
    58   28   97 1    
    59   28   98 1    
    60   29   30 am   BACKBONE|DICT|INTERRES
    61   29   99 1    
    62   30   31 2    
    63   30   32 1    
    64   32   33 1    
    65   32   34 1    
    66   32  100 1    
    67   33  101 1    
    68   33  102 1    
    69   33  103 1    
    70   34   35 am   BACKBONE|DICT|INTERRES
    71   34  104 1    
    72   35   36 2    
    73   37   38 2    
    74   37   39 am   BACKBONE|DICT|INTERRES
    75   39   40 1    
    76   39  105 1    
    77   40   41 1    
    78   40   42 1    
    79   40  106 1    
    80   41  107 1    
    81   41  108 1    
    82   41  109 1    
    83   42   43 2    
    84   42   44 am   BACKBONE|DICT|INTERRES
    85   44   45 1    
    86   44  110 1    
    87   45   46 1    
    88   45   47 1    
    89   45  111 1    
    90   46  112 1    
    91   46  113 1    
    92   46  114 1    
    93   47   48 2    
    94   47   49 am   BACKBONE|DICT|INTERRES
    95   49   50 1    
    96   49  115 1    
    97   50   51 1    
    98   50   52 1    
    99   50  116 1    
   100   51  117 1    
   101   51  118 1    
   102   51  119 1    
   103   52   53 2    
   104   52   54 am   BACKBONE|DICT|INTERRES
   105   54   55 1    
   106   54  120 1    
   107   55   56 1    
   108   55   57 1    
   109   55  121 1    
   110   56  122 1    
   111   56  123 1    
   112   56  124 1    
   113   57   58 2    
   114   57   59 am   BACKBONE|DICT|INTERRES
   115   59   60 1    
   116   59  125 1    
   117   60   61 1    
   118   60   62 1    
   119   60  126 1    
   120   61  127 1    
   121   61  128 1    
   122   61  129 1    
   123   62   63 2    
   124   62   64 am   BACKBONE|DICT|INTERRES
   125   64   65 1    
   126   64  130 1    
   127   65   66 1    
   128   65   69 1    
   129   65  131 1    
   130   66   67 am   BACKBONE|DICT|INTERRES
   131   66   68 2    
   132   67  132 1    
   133   67  133 1    
   134   69   70 1    
   135   69  134 1    
   136   69  135 1    
   137   70   71 1    
   138   71  136 1    
   139   71  137 1    
@<TRIPOS>SUBSTRUCTURE
     1 UNK         1 GROUP             0       ****    0 ROOT    
