@<TRIPOS>MOLECULE
3R137
137   139    1
SMALL
USER_CHARGES


@<TRIPOS>ATOM
      1 CA         22.1397   -4.5207   -1.4807 C.3       0 UNK        -0.2020 
      2 C          23.5827   -4.1757   -1.8144 C.2       0 UNK         0.4855 
      3 O          23.8613   -3.7485   -2.9351 O.2       0 UNK        -0.5197 
      4 N          24.4963   -4.3405   -0.8451 N.am      1 UNK        -0.4892 
      5 CA         25.9404   -4.0850   -0.9612 C.3       1 UNK         0.0835 
      6 C6         26.6380   -5.1321   -1.8717 C.3       12 UNK        -0.0855 
      7 S7         28.4342   -5.2810   -1.5649 S.3       12 UNK        -0.2931 
      8 C8         29.1372   -5.1763   -3.2538 C.3       12 UNK         0.0378 
      9 C9         30.1494   -4.0503   -3.4792 C.ar      12 UNK        -0.0802 
     10 C10        31.0312   -4.1539   -4.5610 C.ar      12 UNK        -0.0944 
     11 C11        31.9784   -3.1570   -4.8137 C.ar      12 UNK        -0.0787 
     12 C12        32.0454   -2.0433   -3.9738 C.ar      12 UNK        -0.0862 
     13 C13        31.1644   -1.9149   -2.8975 C.ar      12 UNK        -0.0733 
     14 C14        30.2167   -2.9160   -2.6588 C.ar      12 UNK        -0.0832 
     15 C15        31.2458   -0.6967   -1.9884 C.3       12 UNK         0.0240 
     16 S16        30.6061    0.8056   -2.7949 S.3       12 UNK        -0.2522 
     17 C17        28.8552    0.3686   -3.0520 C.3       12 UNK        -0.0967 
     18 CA         28.5119    0.1553   -4.5499 C.3       5 UNK         0.0660 
     19 N          27.4234   -0.8121   -4.7342 N.am      5 UNK        -0.4015 
     20 C          26.9401   -1.2225   -5.9174 C.2       4 UNK         0.4946 
     21 O          27.3966   -0.8789   -7.0063 O.2       4 UNK        -0.5353 
     22 CA         25.6986   -2.1290   -5.8905 C.3       4 UNK         0.0277 
     23 CB         26.1037   -3.5899   -5.6626 C.3       4 UNK        -0.1981 
     24 N          24.7245   -1.7118   -4.8785 N.am      4 UNK        -0.4209 
     25 C          24.0673   -0.5424   -4.9118 C.2       3 UNK         0.4942 
     26 O          24.1573    0.2684   -5.8330 O.2       3 UNK        -0.5208 
     27 CA         23.2228   -0.1815   -3.6812 C.3       3 UNK         0.0250 
     28 CB         21.8778   -0.9254   -3.6864 C.3       3 UNK        -0.1990 
     29 N          23.9445   -0.4379   -2.4329 N.am      3 UNK        -0.4232 
     30 C          25.0426    0.2308   -2.0501 C.2       2 UNK         0.4993 
     31 O          25.5301    1.1655   -2.6859 O.2       2 UNK        -0.5286 
     32 CA         25.7361   -0.2408   -0.7606 C.3       2 UNK         0.0209 
     33 CB         25.1554    0.4899    0.4601 C.3       2 UNK        -0.1931 
     34 N          25.6570   -1.6897   -0.5476 N.am      2 UNK        -0.4546 
     35 C          26.2127   -2.6125   -1.3475 C.2       1 UNK         0.5154 
     36 O          26.8447   -2.3298   -2.3665 O.2       1 UNK        -0.5181 
     37 C          28.2253    1.5037   -5.2441 C.2       5 UNK         0.5014 
     38 O          29.1166    2.0577   -5.8853 O.2       5 UNK        -0.5248 
     39 N          26.9876    2.0017   -5.1142 N.am      6 UNK        -0.4434 
     40 CA         26.5167    3.2105   -5.7877 C.3       6 UNK         0.0363 
     41 CB         25.2132    3.6910   -5.1293 C.3       6 UNK        -0.1936 
     42 C          26.3254    3.0066   -7.3006 C.2       6 UNK         0.5081 
     43 O          26.7710    3.8463   -8.0831 O.2       6 UNK        -0.5248 
     44 N          25.6509    1.9143   -7.6861 N.am      7 UNK        -0.4718 
     45 CA         25.2777    1.6181   -9.0719 C.3       7 UNK         0.0273 
     46 CB         24.2354    0.4887   -9.0930 C.3       7 UNK        -0.1935 
     47 C          26.4653    1.2659   -9.9816 C.2       7 UNK         0.5018 
     48 O          26.4987    1.7231  -11.1247 O.2       7 UNK        -0.5186 
     49 N          27.4047    0.4597   -9.4740 N.am      8 UNK        -0.4240 
     50 CA         28.5576   -0.0590  -10.2106 C.3       8 UNK         0.0235 
     51 CB         28.4830   -1.5979  -10.2361 C.3       8 UNK        -0.2000 
     52 C          29.8673    0.4550   -9.5949 C.2       8 UNK         0.4941 
     53 O          30.8222   -0.3104   -9.4633 O.2       8 UNK        -0.5273 
     54 N          29.9069    1.7547   -9.2624 N.am      9 UNK        -0.4262 
     55 CA         31.0059    2.4568   -8.5796 C.3       9 UNK         0.0264 
     56 CB         30.6372    3.9431   -8.4428 C.3       9 UNK        -0.1955 
     57 C          32.4082    2.3080   -9.2019 C.2       9 UNK         0.5031 
     58 O          33.4005    2.5060   -8.4983 O.2       9 UNK        -0.5390 
     59 N          32.4762    1.9244  -10.4841 N.am      10 UNK        -0.4204 
     60 CA         33.6952    1.5643  -11.2105 C.3       10 UNK         0.0237 
     61 CB         33.3300    1.2238  -12.6646 C.3       10 UNK        -0.1985 
     62 C          34.5045    0.4140  -10.5761 C.2       10 UNK         0.4970 
     63 O          35.7135    0.3583  -10.8065 O.2       10 UNK        -0.4914 
     64 N          33.8598   -0.4630   -9.7880 N.am      11 UNK        -0.4285 
     65 CA         34.5496   -1.4888   -8.9864 C.3       11 UNK         0.1007 
     66 C          35.3178   -0.9432   -7.7438 C.2       11 UNK         0.5703 
     67 N          35.1642    0.3188   -7.3558 N.am      11 UNK        -0.7361 
     68 O          36.0852   -1.6801   -7.1290 O.2       11 UNK        -0.4986 
     69 C69        33.6352   -2.6997   -8.6524 C.3       12 UNK        -0.0947 
     70 S70        32.3167   -2.3665   -7.4330 S.3       12 UNK        -0.2240 
     71 C71        32.9340   -3.2820   -5.9892 C.3       12 UNK         0.0194 
     72 H72        21.7718   -5.2863   -2.1645 H         1 UNK         0.0906 
     73 H73        22.0332   -4.8958   -0.4621 H         1 UNK         0.0906 
     74 H74        21.5088   -3.6379   -1.5863 H         1 UNK         0.0906 
     75 H75        24.1926   -4.6837    0.0566 H         1 UNK         0.3140 
     76 H76        26.3449   -4.2083    0.0451 H         1 UNK         0.1085 
     77 H77        26.4212   -4.9359   -2.9196 H         1 UNK         0.0836 
     78 H78        26.2148   -6.1186   -1.6766 H         1 UNK         0.0836 
     79 H79        28.3493   -5.0813   -3.9986 H         1 UNK         0.0731 
     80 H80        29.6217   -6.1323   -3.4578 H         1 UNK         0.0731 
     81 H81        30.9809   -5.0162   -5.2122 H         1 UNK         0.1312 
     82 H82        32.7751   -1.2682   -4.1660 H         1 UNK         0.1406 
     83 H83        29.5303   -2.8041   -1.8318 H         1 UNK         0.1631 
     84 H84        32.2856   -0.5280   -1.7050 H         1 UNK         0.0717 
     85 H85        30.7011   -0.8666   -1.0582 H         1 UNK         0.0717 
     86 H86        28.6473   -0.5342   -2.4810 H         1 UNK         0.0934 
     87 H87        28.2315    1.1415   -2.5992 H         1 UNK         0.0934 
     88 H88        29.3783   -0.2883   -5.0463 H         1 UNK         0.0739 
     89 H89        27.0337   -1.2219   -3.8887 H         1 UNK         0.3093 
     90 H90        25.2114   -2.0607   -6.8651 H         1 UNK         0.0818 
     91 H91        26.7422   -3.9480   -6.4712 H         1 UNK         0.0819 
     92 H92        26.6634   -3.6946   -4.7363 H         1 UNK         0.0819 
     93 H93        25.2349   -4.2464   -5.6116 H         1 UNK         0.0819 
     94 H94        24.5691   -2.3443   -4.0967 H         1 UNK         0.3041 
     95 H95        23.0133    0.8896   -3.7283 H         1 UNK         0.0784 
     96 H96        21.3111   -0.6906   -4.5884 H         1 UNK         0.0793 
     97 H97        22.0065   -2.0072   -3.6595 H         1 UNK         0.0793 
     98 H98        21.2616   -0.6385   -2.8342 H         1 UNK         0.0793 
     99 H99        23.6333   -1.2165   -1.8717 H         1 UNK         0.3024 
    100 H100       26.7916    0.0248   -0.8440 H         1 UNK         0.1171 
    101 H101       25.6998    0.2374    1.3703 H         1 UNK         0.0786 
    102 H102       25.2229    1.5717    0.3349 H         1 UNK         0.0786 
    103 H103       24.1042    0.2452    0.6174 H         1 UNK         0.0786 
    104 H104       25.1298   -2.0042    0.2546 H         1 UNK         0.2977 
    105 H105       26.3277    1.5242   -4.5069 H         1 UNK         0.3127 
    106 H106       27.2692    3.9902   -5.6504 H         1 UNK         0.0770 
    107 H107       24.4207    2.9456   -5.2061 H         1 UNK         0.0814 
    108 H108       24.8506    4.6044   -5.6024 H         1 UNK         0.0814 
    109 H109       25.3619    3.9091   -4.0716 H         1 UNK         0.0814 
    110 H110       25.2859    1.2861   -6.9730 H         1 UNK         0.2983 
    111 H111       24.8084    2.5138   -9.4849 H         1 UNK         0.0947 
    112 H112       24.6309   -0.4311   -8.6608 H         1 UNK         0.0806 
    113 H113       23.9217    0.2632  -10.1132 H         1 UNK         0.0806 
    114 H114       23.3419    0.7634   -8.5323 H         1 UNK         0.0806 
    115 H115       27.3160    0.1293   -8.5121 H         1 UNK         0.3000 
    116 H116       28.5440    0.2910  -11.2446 H         1 UNK         0.0850 
    117 H117       29.2926   -2.0207  -10.8325 H         1 UNK         0.0810 
    118 H118       27.5454   -1.9428  -10.6719 H         1 UNK         0.0810 
    119 H119       28.5623   -2.0196   -9.2331 H         1 UNK         0.0810 
    120 H120       29.0636    2.2929   -9.4054 H         1 UNK         0.3040 
    121 H121       31.0766    2.0277   -7.5791 H         1 UNK         0.0766 
    122 H122       29.7124    4.0702   -7.8788 H         1 UNK         0.0812 
    123 H123       30.5073    4.4181   -9.4159 H         1 UNK         0.0812 
    124 H124       31.4147    4.4928   -7.9104 H         1 UNK         0.0812 
    125 H125       31.6031    1.7707  -10.9661 H         1 UNK         0.3205 
    126 H126       34.3399    2.4455  -11.2154 H         1 UNK         0.0754 
    127 H127       34.2213    0.9798  -13.2448 H         1 UNK         0.0769 
    128 H128       32.8444    2.0645  -13.1607 H         1 UNK         0.0769 
    129 H129       32.6593    0.3652  -12.7210 H         1 UNK         0.0769 
    130 H130       32.8595   -0.3692   -9.6353 H         1 UNK         0.2981 
    131 H131       35.3330   -1.8957   -9.6290 H         1 UNK         0.0541 
    132 H132       35.6776    0.6499   -6.5552 H         1 UNK         0.3459 
    133 H133       34.5403    0.9492   -7.8473 H         1 UNK         0.3459 
    134 H134       33.1570   -3.0569   -9.5656 H         1 UNK         0.0612 
    135 H135       34.2435   -3.5352   -8.3019 H         1 UNK         0.0612 
    136 H136       33.0701   -4.3311   -6.2566 H         1 UNK         0.0624 
    137 H137       33.9176   -2.9018   -5.7095 H         1 UNK         0.0624 
@<TRIPOS>BOND
     1    1    2 1    
     2    1   72 1    
     3    1   73 1    
     4    1   74 1    
     5    2    3 2    
     6    2    4 am   BACKBONE|DICT|INTERRES
     7    4    5 1    
     8    4   75 1    
     9    5    6 1    
    10    5   35 1    
    11    5   76 1    
    12    6    7 1    
    13    6   77 1    
    14    6   78 1    
    15    7    8 1    
    16    8    9 1    
    17    8   79 1    
    18    8   80 1    
    19    9   10 ar   
    20    9   14 ar   
    21   10   11 ar   
    22   10   81 1    
    23   11   12 ar   
    24   11   71 1    
    25   12   13 ar   
    26   12   82 1    
    27   13   14 ar   
    28   13   15 1    
    29   14   83 1    
    30   15   16 1    
    31   15   84 1    
    32   15   85 1    
    33   16   17 1    
    34   17   18 1    
    35   17   86 1    
    36   17   87 1    
    37   18   19 1    
    38   18   37 1    
    39   18   88 1    
    40   19   20 am   BACKBONE|DICT|INTERRES
    41   19   89 1    
    42   20   21 2    
    43   20   22 1    
    44   22   23 1    
    45   22   24 1    
    46   22   90 1    
    47   23   91 1    
    48   23   92 1    
    49   23   93 1    
    50   24   25 am   BACKBONE|DICT|INTERRES
    51   24   94 1    
    52   25   26 2    
    53   25   27 1    
    54   27   28 1    
    55   27   29 1    
    56   27   95 1    
    57   28   96 1    
    58   28   97 1    
    59   28   98 1    
    60   29   30 am   BACKBONE|DICT|INTERRES
    61   29   99 1    
    62   30   31 2    
    63   30   32 1    
    64   32   33 1    
    65   32   34 1    
    66   32  100 1    
    67   33  101 1    
    68   33  102 1    
    69   33  103 1    
    70   34   35 am   BACKBONE|DICT|INTERRES
    71   34  104 1    
    72   35   36 2    
    73   37   38 2    
    74   37   39 am   BACKBONE|DICT|INTERRES
    75   39   40 1    
    76   39  105 1    
    77   40   41 1    
    78   40   42 1    
    79   40  106 1    
    80   41  107 1    
    81   41  108 1    
    82   41  109 1    
    83   42   43 2    
    84   42   44 am   BACKBONE|DICT|INTERRES
    85   44   45 1    
    86   44  110 1    
    87   45   46 1    
    88   45   47 1    
    89   45  111 1    
    90   46  112 1    
    91   46  113 1    
    92   46  114 1    
    93   47   48 2    
    94   47   49 am   BACKBONE|DICT|INTERRES
    95   49   50 1    
    96   49  115 1    
    97   50   51 1    
    98   50   52 1    
    99   50  116 1    
   100   51  117 1    
   101   51  118 1    
   102   51  119 1    
   103   52   53 2    
   104   52   54 am   BACKBONE|DICT|INTERRES
   105   54   55 1    
   106   54  120 1    
   107   55   56 1    
   108   55   57 1    
   109   55  121 1    
   110   56  122 1    
   111   56  123 1    
   112   56  124 1    
   113   57   58 2    
   114   57   59 am   BACKBONE|DICT|INTERRES
   115   59   60 1    
   116   59  125 1    
   117   60   61 1    
   118   60   62 1    
   119   60  126 1    
   120   61  127 1    
   121   61  128 1    
   122   61  129 1    
   123   62   63 2    
   124   62   64 am   BACKBONE|DICT|INTERRES
   125   64   65 1    
   126   64  130 1    
   127   65   66 1    
   128   65   69 1    
   129   65  131 1    
   130   66   67 am   BACKBONE|DICT|INTERRES
   131   66   68 2    
   132   67  132 1    
   133   67  133 1    
   134   69   70 1    
   135   69  134 1    
   136   69  135 1    
   137   70   71 1    
   138   71  136 1    
   139   71  137 1    
@<TRIPOS>SUBSTRUCTURE
     1 UNK         1 GROUP             0       ****    0 ROOT    
