@<TRIPOS>MOLECULE
3R137
137   139    1
SMALL
USER_CHARGES


@<TRIPOS>ATOM
      1 CA         25.5982   -5.9887    2.2771 C.3       0 UNK        -0.2020 
      2 C          26.3066   -4.8347    1.5833 C.2       0 UNK         0.4855 
      3 O          26.5560   -3.8039    2.2095 O.2       0 UNK        -0.5197 
      4 N          26.6419   -5.0024    0.2983 N.am      1 UNK        -0.4892 
      5 CA         27.2782   -3.9809   -0.5391 C.3       1 UNK         0.0835 
      6 C6         27.8392   -4.5836   -1.8505 C.3       12 UNK        -0.0855 
      7 S7         29.2327   -5.7312   -1.5720 S.3       12 UNK        -0.2931 
      8 C8         30.6397   -4.6066   -1.2628 C.3       12 UNK         0.0378 
      9 C9         30.8098   -3.5634   -2.3591 C.ar      12 UNK        -0.0802 
     10 C10        31.3313   -3.9258   -3.6031 C.ar      12 UNK        -0.0944 
     11 C11        31.4518   -2.9769   -4.6212 C.ar      12 UNK        -0.0787 
     12 C12        31.0428   -1.6595   -4.3904 C.ar      12 UNK        -0.0862 
     13 C13        30.5148   -1.2798   -3.1486 C.ar      12 UNK        -0.0733 
     14 C14        30.4212   -2.2388   -2.1352 C.ar      12 UNK        -0.0832 
     15 C15        29.9772    0.1254   -2.8694 C.3       12 UNK         0.0240 
     16 S16        30.5554    1.4290   -4.0100 S.3       12 UNK        -0.2522 
     17 C17        29.0039    2.3141   -4.3852 C.3       12 UNK        -0.0967 
     18 CA         28.4143    1.8692   -5.7443 C.3       5 UNK         0.0660 
     19 N          27.9695    0.4726   -5.7519 N.am      5 UNK        -0.4015 
     20 C          27.9212   -0.2824   -6.8567 C.2       4 UNK         0.4946 
     21 O          28.3457    0.0949   -7.9499 O.2       4 UNK        -0.5353 
     22 CA         27.2824   -1.6790   -6.7485 C.3       4 UNK         0.0277 
     23 CB         28.3530   -2.7634   -6.5657 C.3       4 UNK        -0.1981 
     24 N          26.2857   -1.7935   -5.6803 N.am      4 UNK        -0.4209 
     25 C          25.0887   -1.1934   -5.7084 C.2       3 UNK         0.4942 
     26 O          24.7042   -0.4866   -6.6367 O.2       3 UNK        -0.5208 
     27 CA         24.1870   -1.3661   -4.4770 C.3       3 UNK         0.0250 
     28 CB         23.4261   -2.6991   -4.5488 C.3       3 UNK        -0.1990 
     29 N          24.8856   -1.2720   -3.1919 N.am      3 UNK        -0.4232 
     30 C          25.6754   -0.2719   -2.7810 C.2       2 UNK         0.4993 
     31 O          26.0206    0.6685   -3.4983 O.2       2 UNK        -0.5286 
     32 CA         26.1905   -0.3383   -1.3327 C.3       2 UNK         0.0209 
     33 CB         25.0817    0.0426   -0.3322 C.3       2 UNK        -0.1931 
     34 N          26.8376   -1.6106   -0.9707 N.am      2 UNK        -0.4546 
     35 C          26.2987   -2.8356   -0.8664 C.2       1 UNK         0.5154 
     36 O          25.1086   -3.0879   -1.0748 O.2       1 UNK        -0.5181 
     37 C          27.2648    2.7876   -6.1947 C.2       5 UNK         0.5014 
     38 O          27.5041    3.6938   -6.9923 O.2       5 UNK        -0.5248 
     39 N          26.0351    2.5125   -5.7312 N.am      6 UNK        -0.4434 
     40 CA         24.8114    3.2146   -6.1374 C.3       6 UNK         0.0363 
     41 CB         23.6290    2.7219   -5.2887 C.3       6 UNK        -0.1936 
     42 C          24.5021    3.0749   -7.6406 C.2       6 UNK         0.5081 
     43 O          24.0966    4.0516   -8.2705 O.2       6 UNK        -0.5248 
     44 N          24.7418    1.8793   -8.1963 N.am      7 UNK        -0.4718 
     45 CA         24.6453    1.5713   -9.6273 C.3       7 UNK         0.0273 
     46 CB         24.5290    0.0470   -9.7984 C.3       7 UNK        -0.1935 
     47 C          25.8222    2.1108  -10.4645 C.2       7 UNK         0.5018 
     48 O          25.7730    2.0028  -11.6904 O.2       7 UNK        -0.5186 
     49 N          26.8546    2.6576   -9.8042 N.am      8 UNK        -0.4240 
     50 CA         28.0886    3.2116  -10.3719 C.3       8 UNK         0.0235 
     51 CB         27.7922    4.4477  -11.2485 C.3       8 UNK        -0.2000 
     52 C          28.9775    2.1690  -11.0793 C.2       8 UNK         0.4941 
     53 O          29.7363    2.5309  -11.9807 O.2       8 UNK        -0.5273 
     54 N          28.9070    0.9040  -10.6389 N.am      9 UNK        -0.4262 
     55 CA         29.8594   -0.1453  -11.0107 C.3       9 UNK         0.0264 
     56 CB         29.2325   -1.5329  -10.7942 C.3       9 UNK        -0.1955 
     57 C          31.1599    0.0099  -10.2065 C.2       9 UNK         0.5031 
     58 O          32.2428   -0.1282  -10.7758 O.2       9 UNK        -0.5390 
     59 N          31.0188    0.3266   -8.9090 N.am      10 UNK        -0.4204 
     60 CA         32.0266    0.7672   -7.9302 C.3       10 UNK         0.0237 
     61 CB         32.6092    2.1321   -8.3435 C.3       10 UNK        -0.1985 
     62 C          33.1581   -0.2222   -7.5827 C.2       10 UNK         0.4970 
     63 O          33.6667   -0.1445   -6.4649 O.2       10 UNK        -0.4914 
     64 N          33.5197   -1.1122   -8.5155 N.am      11 UNK        -0.4285 
     65 CA         34.5856   -2.1267   -8.4496 C.3       11 UNK         0.1007 
     66 C          35.9818   -1.5823   -8.0125 C.2       11 UNK         0.5703 
     67 N          36.8188   -2.3834   -7.3657 N.am      11 UNK        -0.7361 
     68 O          36.3453   -0.4496   -8.3256 O.2       11 UNK        -0.4986 
     69 C69        34.1240   -3.4658   -7.7945 C.3       12 UNK        -0.0947 
     70 S70        33.8043   -3.3985   -5.9988 S.3       12 UNK        -0.2240 
     71 C71        31.9881   -3.3817   -5.9840 C.3       12 UNK         0.0194 
     72 H72        24.6188   -5.6684    2.6317 H         1 UNK         0.0906 
     73 H73        25.4560   -6.8399    1.6114 H         1 UNK         0.0906 
     74 H74        26.1790   -6.3238    3.1360 H         1 UNK         0.0906 
     75 H75        26.4053   -5.8650   -0.1708 H         1 UNK         0.3140 
     76 H76        28.1057   -3.5570    0.0337 H         1 UNK         0.1085 
     77 H77        28.1550   -3.8068   -2.5481 H         1 UNK         0.0836 
     78 H78        27.0546   -5.1318   -2.3761 H         1 UNK         0.0836 
     79 H79        31.5523   -5.1993   -1.1848 H         1 UNK         0.0731 
     80 H80        30.5092   -4.1283   -0.2910 H         1 UNK         0.0731 
     81 H81        31.6303   -4.9496   -3.7830 H         1 UNK         0.1312 
     82 H82        31.1216   -0.9422   -5.1942 H         1 UNK         0.1406 
     83 H83        30.0230   -1.9580   -1.1706 H         1 UNK         0.1631 
     84 H84        30.2426    0.4277   -1.8552 H         1 UNK         0.0717 
     85 H85        28.8898    0.0683   -2.8998 H         1 UNK         0.0717 
     86 H86        28.2833    2.1917   -3.5747 H         1 UNK         0.0934 
     87 H87        29.2439    3.3791   -4.4101 H         1 UNK         0.0934 
     88 H88        29.2073    1.9833   -6.4872 H         1 UNK         0.0739 
     89 H89        27.5386    0.1329   -4.9024 H         1 UNK         0.3093 
     90 H90        26.7795   -1.8655   -7.6999 H         1 UNK         0.0818 
     91 H91        28.7907   -2.7301   -5.5692 H         1 UNK         0.0819 
     92 H92        27.9325   -3.7589   -6.7080 H         1 UNK         0.0819 
     93 H93        29.1611   -2.6494   -7.2894 H         1 UNK         0.0819 
     94 H94        26.5241   -2.3600   -4.8798 H         1 UNK         0.3041 
     95 H95        23.4535   -0.5583   -4.4981 H         1 UNK         0.0784 
     96 H96        22.8830   -2.7899   -5.4908 H         1 UNK         0.0793 
     97 H97        24.0992   -3.5543   -4.4748 H         1 UNK         0.0793 
     98 H98        22.6935   -2.7806   -3.7455 H         1 UNK         0.0793 
     99 H99        24.7051   -2.0110   -2.5148 H         1 UNK         0.3024 
    100 H100       26.9662    0.4253   -1.2512 H         1 UNK         0.1171 
    101 H101       25.4657    0.0809    0.6872 H         1 UNK         0.0786 
    102 H102       24.6739    1.0282   -0.5613 H         1 UNK         0.0786 
    103 H103       24.2497   -0.6620   -0.3488 H         1 UNK         0.0786 
    104 H104       27.8254   -1.5277   -0.7816 H         1 UNK         0.2977 
    105 H105       25.9303    1.7750   -5.0381 H         1 UNK         0.3127 
    106 H106       24.9601    4.2762   -5.9293 H         1 UNK         0.0770 
    107 H107       23.4165    1.6680   -5.4672 H         1 UNK         0.0814 
    108 H108       23.8223    2.8495   -4.2234 H         1 UNK         0.0814 
    109 H109       22.7222    3.2805   -5.5243 H         1 UNK         0.0814 
    110 H110       24.9719    1.0988   -7.5839 H         1 UNK         0.2983 
    111 H111       23.7351    2.0314  -10.0179 H         1 UNK         0.0947 
    112 H112       24.4061   -0.2244  -10.8478 H         1 UNK         0.0806 
    113 H113       23.6668   -0.3478   -9.2606 H         1 UNK         0.0806 
    114 H114       25.4176   -0.4668   -9.4296 H         1 UNK         0.0806 
    115 H115       26.7865    2.7177   -8.7952 H         1 UNK         0.3000 
    116 H116       28.6734    3.5565   -9.5179 H         1 UNK         0.0850 
    117 H117       28.7141    4.9561  -11.5333 H         1 UNK         0.0810 
    118 H118       27.1766    5.1725  -10.7158 H         1 UNK         0.0810 
    119 H119       27.2741    4.1778  -12.1691 H         1 UNK         0.0810 
    120 H120       28.3036    0.7012   -9.8481 H         1 UNK         0.3040 
    121 H121       30.1015   -0.0463  -12.0712 H         1 UNK         0.0766 
    122 H122       28.3175   -1.6472  -11.3756 H         1 UNK         0.0812 
    123 H123       28.9881   -1.7181   -9.7485 H         1 UNK         0.0812 
    124 H124       29.9177   -2.3203  -11.1108 H         1 UNK         0.0812 
    125 H125       30.0629    0.3223   -8.5551 H         1 UNK         0.3205 
    126 H126       31.4719    0.9195   -7.0030 H         1 UNK         0.0754 
    127 H127       33.2878    2.5150   -7.5799 H         1 UNK         0.0769 
    128 H128       31.8221    2.8742   -8.4785 H         1 UNK         0.0769 
    129 H129       33.1723    2.0660   -9.2751 H         1 UNK         0.0769 
    130 H130       33.0896   -0.9910   -9.4293 H         1 UNK         0.2981 
    131 H131       34.7511   -2.3710   -9.4993 H         1 UNK         0.0541 
    132 H132       36.5328   -3.3101   -7.0916 H         1 UNK         0.3459 
    133 H133       37.7303   -2.0391   -7.1085 H         1 UNK         0.3459 
    134 H134       34.8685   -4.2435   -7.9706 H         1 UNK         0.0612 
    135 H135       33.2260   -3.8230   -8.3007 H         1 UNK         0.0612 
    136 H136       31.6243   -2.6934   -6.7479 H         1 UNK         0.0624 
    137 H137       31.6147   -4.3700   -6.2562 H         1 UNK         0.0624 
@<TRIPOS>BOND
     1    1    2 1    
     2    1   72 1    
     3    1   73 1    
     4    1   74 1    
     5    2    3 2    
     6    2    4 am   BACKBONE|DICT|INTERRES
     7    4    5 1    
     8    4   75 1    
     9    5    6 1    
    10    5   35 1    
    11    5   76 1    
    12    6    7 1    
    13    6   77 1    
    14    6   78 1    
    15    7    8 1    
    16    8    9 1    
    17    8   79 1    
    18    8   80 1    
    19    9   10 ar   
    20    9   14 ar   
    21   10   11 ar   
    22   10   81 1    
    23   11   12 ar   
    24   11   71 1    
    25   12   13 ar   
    26   12   82 1    
    27   13   14 ar   
    28   13   15 1    
    29   14   83 1    
    30   15   16 1    
    31   15   84 1    
    32   15   85 1    
    33   16   17 1    
    34   17   18 1    
    35   17   86 1    
    36   17   87 1    
    37   18   19 1    
    38   18   37 1    
    39   18   88 1    
    40   19   20 am   BACKBONE|DICT|INTERRES
    41   19   89 1    
    42   20   21 2    
    43   20   22 1    
    44   22   23 1    
    45   22   24 1    
    46   22   90 1    
    47   23   91 1    
    48   23   92 1    
    49   23   93 1    
    50   24   25 am   BACKBONE|DICT|INTERRES
    51   24   94 1    
    52   25   26 2    
    53   25   27 1    
    54   27   28 1    
    55   27   29 1    
    56   27   95 1    
    57   28   96 1    
    58   28   97 1    
    59   28   98 1    
    60   29   30 am   BACKBONE|DICT|INTERRES
    61   29   99 1    
    62   30   31 2    
    63   30   32 1    
    64   32   33 1    
    65   32   34 1    
    66   32  100 1    
    67   33  101 1    
    68   33  102 1    
    69   33  103 1    
    70   34   35 am   BACKBONE|DICT|INTERRES
    71   34  104 1    
    72   35   36 2    
    73   37   38 2    
    74   37   39 am   BACKBONE|DICT|INTERRES
    75   39   40 1    
    76   39  105 1    
    77   40   41 1    
    78   40   42 1    
    79   40  106 1    
    80   41  107 1    
    81   41  108 1    
    82   41  109 1    
    83   42   43 2    
    84   42   44 am   BACKBONE|DICT|INTERRES
    85   44   45 1    
    86   44  110 1    
    87   45   46 1    
    88   45   47 1    
    89   45  111 1    
    90   46  112 1    
    91   46  113 1    
    92   46  114 1    
    93   47   48 2    
    94   47   49 am   BACKBONE|DICT|INTERRES
    95   49   50 1    
    96   49  115 1    
    97   50   51 1    
    98   50   52 1    
    99   50  116 1    
   100   51  117 1    
   101   51  118 1    
   102   51  119 1    
   103   52   53 2    
   104   52   54 am   BACKBONE|DICT|INTERRES
   105   54   55 1    
   106   54  120 1    
   107   55   56 1    
   108   55   57 1    
   109   55  121 1    
   110   56  122 1    
   111   56  123 1    
   112   56  124 1    
   113   57   58 2    
   114   57   59 am   BACKBONE|DICT|INTERRES
   115   59   60 1    
   116   59  125 1    
   117   60   61 1    
   118   60   62 1    
   119   60  126 1    
   120   61  127 1    
   121   61  128 1    
   122   61  129 1    
   123   62   63 2    
   124   62   64 am   BACKBONE|DICT|INTERRES
   125   64   65 1    
   126   64  130 1    
   127   65   66 1    
   128   65   69 1    
   129   65  131 1    
   130   66   67 am   BACKBONE|DICT|INTERRES
   131   66   68 2    
   132   67  132 1    
   133   67  133 1    
   134   69   70 1    
   135   69  134 1    
   136   69  135 1    
   137   70   71 1    
   138   71  136 1    
   139   71  137 1    
@<TRIPOS>SUBSTRUCTURE
     1 UNK         1 GROUP             0       ****    0 ROOT    
