@<TRIPOS>MOLECULE
3R137
137   139    1
SMALL
USER_CHARGES


@<TRIPOS>ATOM
      1 CA         26.6066   -1.6013    4.3247 C.3       0 UNK        -0.2020 
      2 C          27.0208   -1.4353    2.8701 C.2       0 UNK         0.4855 
      3 O          26.6548   -0.4432    2.2388 O.2       0 UNK        -0.5197 
      4 N          27.7879   -2.3938    2.3352 N.am      1 UNK        -0.4892 
      5 CA         28.2181   -2.4315    0.9338 C.3       1 UNK         0.0835 
      6 C6         29.4262   -3.3845    0.7537 C.3       12 UNK        -0.0855 
      7 S7         30.3508   -3.0342   -0.7781 S.3       12 UNK        -0.2931 
      8 C8         30.2431   -4.6351   -1.6477 C.3       12 UNK         0.0378 
      9 C9         30.6118   -4.5145   -3.1225 C.ar      12 UNK        -0.0802 
     10 C10        31.7816   -3.8546   -3.5152 C.ar      12 UNK        -0.0944 
     11 C11        32.0847   -3.6785   -4.8685 C.ar      12 UNK        -0.0787 
     12 C12        31.2352   -4.2213   -5.8353 C.ar      12 UNK        -0.0862 
     13 C13        30.0684   -4.8962   -5.4587 C.ar      12 UNK        -0.0733 
     14 C14        29.7673   -5.0476   -4.1019 C.ar      12 UNK        -0.0832 
     15 C15        29.0967   -5.3948   -6.5232 C.3       12 UNK         0.0240 
     16 S16        27.5864   -4.3681   -6.6148 S.3       12 UNK        -0.2522 
     17 C17        28.2909   -2.6912   -6.5029 C.3       12 UNK        -0.0967 
     18 CA         27.5241   -1.6134   -7.2892 C.3       5 UNK         0.0660 
     19 N          26.1200   -1.4893   -6.8827 N.am      5 UNK        -0.4015 
     20 C          25.2135   -0.6978   -7.4768 C.2       4 UNK         0.4946 
     21 O          25.4648    0.0465   -8.4242 O.2       4 UNK        -0.5353 
     22 CA         23.8003   -0.6958   -6.8759 C.3       4 UNK         0.0277 
     23 CB         23.0839   -2.0318   -7.1343 C.3       4 UNK        -0.1981 
     24 N          23.8292   -0.4096   -5.4416 N.am      4 UNK        -0.4209 
     25 C          24.2090    0.7631   -4.9124 C.2       3 UNK         0.4942 
     26 O          24.4605    1.7667   -5.5791 O.2       3 UNK        -0.5208 
     27 CA         24.3608    0.8238   -3.3821 C.3       3 UNK         0.0250 
     28 CB         23.0818    1.3808   -2.7366 C.3       3 UNK        -0.1990 
     29 N          24.6988   -0.4637   -2.7626 N.am      3 UNK        -0.4232 
     30 C          25.8270   -1.1509   -2.9890 C.2       2 UNK         0.4993 
     31 O          26.7111   -0.7858   -3.7679 O.2       2 UNK        -0.5286 
     32 CA         25.9970   -2.4606   -2.2146 C.3       2 UNK         0.0209 
     33 CB         26.3864   -3.6274   -3.1386 C.3       2 UNK        -0.1931 
     34 N          27.0355   -2.2592   -1.2110 N.am      2 UNK        -0.4546 
     35 C          27.0387   -2.8072    0.0091 C.2       1 UNK         0.5154 
     36 O          26.1732   -3.5922    0.4081 O.2       1 UNK        -0.5181 
     37 C          28.3026   -0.2941   -7.1623 C.2       5 UNK         0.5014 
     38 O          29.1944   -0.0466   -7.9765 O.2       5 UNK        -0.5248 
     39 N          27.9558    0.5297   -6.1624 N.am      6 UNK        -0.4434 
     40 CA         28.5392    1.8540   -5.9431 C.3       6 UNK         0.0363 
     41 CB         27.8934    2.5162   -4.7177 C.3       6 UNK        -0.1936 
     42 C          28.4554    2.7727   -7.1764 C.2       6 UNK         0.5081 
     43 O          29.3934    3.5329   -7.4193 O.2       6 UNK        -0.5248 
     44 N          27.3702    2.6352   -7.9506 N.am      7 UNK        -0.4718 
     45 CA         27.1895    3.2687   -9.2524 C.3       7 UNK         0.0273 
     46 CB         25.7194    3.6923   -9.4114 C.3       7 UNK        -0.1935 
     47 C          27.6167    2.3321  -10.3943 C.2       7 UNK         0.5018 
     48 O          28.4561    2.7208  -11.2057 O.2       7 UNK        -0.5186 
     49 N          27.0291    1.1269  -10.4538 N.am      8 UNK        -0.4240 
     50 CA         27.1108    0.2083  -11.5966 C.3       8 UNK         0.0235 
     51 CB         26.0763   -0.9168  -11.4307 C.3       8 UNK        -0.2000 
     52 C          28.5043   -0.3852  -11.8515 C.2       8 UNK         0.4941 
     53 O          28.8825   -0.5432  -13.0128 O.2       8 UNK        -0.5273 
     54 N          29.2411   -0.6943  -10.7778 N.am      9 UNK        -0.4262 
     55 CA         30.6253   -1.1747  -10.8290 C.3       9 UNK         0.0264 
     56 CB         30.7852   -2.3497   -9.8455 C.3       9 UNK        -0.1955 
     57 C          31.6231   -0.0486  -10.5027 C.2       9 UNK         0.5031 
     58 O          32.8267   -0.3086  -10.4748 O.2       9 UNK        -0.5390 
     59 N          31.1103    1.1646  -10.2380 N.am      10 UNK        -0.4204 
     60 CA         31.8192    2.3643   -9.7846 C.3       10 UNK         0.0237 
     61 CB         32.7294    2.9155  -10.9029 C.3       10 UNK        -0.1985 
     62 C          32.5604    2.1608   -8.4473 C.2       10 UNK         0.4970 
     63 O          33.6172    2.7618   -8.2430 O.2       10 UNK        -0.4914 
     64 N          32.0052    1.3179   -7.5622 N.am      11 UNK        -0.4285 
     65 CA         32.5865    1.0107   -6.2451 C.3       11 UNK         0.1007 
     66 C          32.4968    2.1734   -5.2057 C.2       11 UNK         0.5703 
     67 N          31.7452    3.2414   -5.4530 N.am      11 UNK        -0.7361 
     68 O          33.1420    2.1221   -4.1620 O.2       11 UNK        -0.4986 
     69 C69        32.0599   -0.3452   -5.6895 C.3       12 UNK        -0.0947 
     70 S70        33.2987   -1.1838   -4.6376 S.3       12 UNK        -0.2240 
     71 C71        33.3210   -2.8903   -5.2824 C.3       12 UNK         0.0194 
     72 H72        26.9594   -0.7555    4.9143 H         1 UNK         0.0906 
     73 H73        25.5204   -1.6417    4.4027 H         1 UNK         0.0906 
     74 H74        27.0120   -2.5128    4.7636 H         1 UNK         0.0906 
     75 H75        28.0259   -3.2041    2.8897 H         1 UNK         0.3140 
     76 H76        28.5398   -1.4197    0.6744 H         1 UNK         0.1085 
     77 H77        30.1299   -3.2517    1.5773 H         1 UNK         0.0836 
     78 H78        29.1170   -4.4310    0.7946 H         1 UNK         0.0836 
     79 H79        30.9070   -5.3546   -1.1666 H         1 UNK         0.0731 
     80 H80        29.2283   -5.0235   -1.5456 H         1 UNK         0.0731 
     81 H81        32.4392   -3.4369   -2.7650 H         1 UNK         0.1312 
     82 H82        31.4625   -4.0861   -6.8840 H         1 UNK         0.1406 
     83 H83        28.8545   -5.5521   -3.8150 H         1 UNK         0.1631 
     84 H84        28.8153   -6.4269   -6.3099 H         1 UNK         0.0717 
     85 H85        29.5748   -5.4039   -7.5041 H         1 UNK         0.0717 
     86 H86        28.3738   -2.4231   -5.4474 H         1 UNK         0.0934 
     87 H87        29.3103   -2.7281   -6.8870 H         1 UNK         0.0934 
     88 H88        27.5295   -1.8930   -8.3446 H         1 UNK         0.0739 
     89 H89        25.8403   -2.0466   -6.0900 H         1 UNK         0.3093 
     90 H90        23.2312    0.0957   -7.3687 H         1 UNK         0.0818 
     91 H91        22.0508   -1.9991   -6.7879 H         1 UNK         0.0819 
     92 H92        23.0578   -2.2581   -8.2013 H         1 UNK         0.0819 
     93 H93        23.5772   -2.8675   -6.6364 H         1 UNK         0.0819 
     94 H94        23.6148   -1.1700   -4.8138 H         1 UNK         0.3041 
     95 H95        25.1792    1.5146   -3.1679 H         1 UNK         0.0784 
     96 H96        22.8217    2.3518   -3.1611 H         1 UNK         0.0793 
     97 H97        22.2286    0.7190   -2.8910 H         1 UNK         0.0793 
     98 H98        23.2078    1.5236   -1.6631 H         1 UNK         0.0793 
     99 H99        24.0330   -0.8260   -2.0945 H         1 UNK         0.3024 
    100 H100       25.0494   -2.7070   -1.7295 H         1 UNK         0.1171 
    101 H101       25.6619   -3.7548   -3.9436 H         1 UNK         0.0786 
    102 H102       26.4311   -4.5678   -2.5893 H         1 UNK         0.0786 
    103 H103       27.3623   -3.4649   -3.5948 H         1 UNK         0.0786 
    104 H104       27.7799   -1.6282   -1.4790 H         1 UNK         0.2977 
    105 H105       27.2794    0.2042   -5.4781 H         1 UNK         0.3127 
    106 H106       29.5918    1.6893   -5.7214 H         1 UNK         0.0770 
    107 H107       26.8381    2.7306   -4.8843 H         1 UNK         0.0814 
    108 H108       28.3844    3.4622   -4.4858 H         1 UNK         0.0814 
    109 H109       27.9739    1.8833   -3.8336 H         1 UNK         0.0814 
    110 H110       26.6706    1.9566   -7.6759 H         1 UNK         0.2983 
    111 H111       27.8047    4.1695   -9.3137 H         1 UNK         0.0947 
    112 H112       25.5472    4.1491  -10.3870 H         1 UNK         0.0806 
    113 H113       25.4385    4.4266   -8.6563 H         1 UNK         0.0806 
    114 H114       25.0372    2.8458   -9.3203 H         1 UNK         0.0806 
    115 H115       26.3861    0.8536   -9.7102 H         1 UNK         0.3000 
    116 H116       26.8395    0.7808  -12.4863 H         1 UNK         0.0850 
    117 H117       26.0734   -1.5767  -12.2993 H         1 UNK         0.0810 
    118 H118       25.0677   -0.5166  -11.3248 H         1 UNK         0.0810 
    119 H119       26.2849   -1.5322  -10.5550 H         1 UNK         0.0810 
    120 H120       28.8822   -0.4933   -9.8491 H         1 UNK         0.3040 
    121 H121       30.8642   -1.5391  -11.8302 H         1 UNK         0.0766 
    122 H122       31.7693   -2.8089   -9.9469 H         1 UNK         0.0812 
    123 H123       30.0448   -3.1283  -10.0292 H         1 UNK         0.0812 
    124 H124       30.6873   -2.0293   -8.8087 H         1 UNK         0.0812 
    125 H125       30.1081    1.2687  -10.3232 H         1 UNK         0.3205 
    126 H126       31.0495    3.1126   -9.5903 H         1 UNK         0.0754 
    127 H127       33.1519    3.8817  -10.6243 H         1 UNK         0.0769 
    128 H128       32.1729    3.0626  -11.8286 H         1 UNK         0.0769 
    129 H129       33.5625    2.2445  -11.1145 H         1 UNK         0.0769 
    130 H130       31.1238    0.8717   -7.7888 H         1 UNK         0.2981 
    131 H131       33.6550    0.8812   -6.4286 H         1 UNK         0.0541 
    132 H132       31.1967    3.3152   -6.3001 H         1 UNK         0.3459 
    133 H133       31.7204    3.9857   -4.7748 H         1 UNK         0.3459 
    134 H134       31.8099   -1.0165   -6.5127 H         1 UNK         0.0612 
    135 H135       31.1357   -0.2145   -5.1239 H         1 UNK         0.0612 
    136 H136       33.4330   -2.8648   -6.3675 H         1 UNK         0.0624 
    137 H137       34.2045   -3.3979   -4.8933 H         1 UNK         0.0624 
@<TRIPOS>BOND
     1    1    2 1    
     2    1   72 1    
     3    1   73 1    
     4    1   74 1    
     5    2    3 2    
     6    2    4 am   BACKBONE|DICT|INTERRES
     7    4    5 1    
     8    4   75 1    
     9    5    6 1    
    10    5   35 1    
    11    5   76 1    
    12    6    7 1    
    13    6   77 1    
    14    6   78 1    
    15    7    8 1    
    16    8    9 1    
    17    8   79 1    
    18    8   80 1    
    19    9   10 ar   
    20    9   14 ar   
    21   10   11 ar   
    22   10   81 1    
    23   11   12 ar   
    24   11   71 1    
    25   12   13 ar   
    26   12   82 1    
    27   13   14 ar   
    28   13   15 1    
    29   14   83 1    
    30   15   16 1    
    31   15   84 1    
    32   15   85 1    
    33   16   17 1    
    34   17   18 1    
    35   17   86 1    
    36   17   87 1    
    37   18   19 1    
    38   18   37 1    
    39   18   88 1    
    40   19   20 am   BACKBONE|DICT|INTERRES
    41   19   89 1    
    42   20   21 2    
    43   20   22 1    
    44   22   23 1    
    45   22   24 1    
    46   22   90 1    
    47   23   91 1    
    48   23   92 1    
    49   23   93 1    
    50   24   25 am   BACKBONE|DICT|INTERRES
    51   24   94 1    
    52   25   26 2    
    53   25   27 1    
    54   27   28 1    
    55   27   29 1    
    56   27   95 1    
    57   28   96 1    
    58   28   97 1    
    59   28   98 1    
    60   29   30 am   BACKBONE|DICT|INTERRES
    61   29   99 1    
    62   30   31 2    
    63   30   32 1    
    64   32   33 1    
    65   32   34 1    
    66   32  100 1    
    67   33  101 1    
    68   33  102 1    
    69   33  103 1    
    70   34   35 am   BACKBONE|DICT|INTERRES
    71   34  104 1    
    72   35   36 2    
    73   37   38 2    
    74   37   39 am   BACKBONE|DICT|INTERRES
    75   39   40 1    
    76   39  105 1    
    77   40   41 1    
    78   40   42 1    
    79   40  106 1    
    80   41  107 1    
    81   41  108 1    
    82   41  109 1    
    83   42   43 2    
    84   42   44 am   BACKBONE|DICT|INTERRES
    85   44   45 1    
    86   44  110 1    
    87   45   46 1    
    88   45   47 1    
    89   45  111 1    
    90   46  112 1    
    91   46  113 1    
    92   46  114 1    
    93   47   48 2    
    94   47   49 am   BACKBONE|DICT|INTERRES
    95   49   50 1    
    96   49  115 1    
    97   50   51 1    
    98   50   52 1    
    99   50  116 1    
   100   51  117 1    
   101   51  118 1    
   102   51  119 1    
   103   52   53 2    
   104   52   54 am   BACKBONE|DICT|INTERRES
   105   54   55 1    
   106   54  120 1    
   107   55   56 1    
   108   55   57 1    
   109   55  121 1    
   110   56  122 1    
   111   56  123 1    
   112   56  124 1    
   113   57   58 2    
   114   57   59 am   BACKBONE|DICT|INTERRES
   115   59   60 1    
   116   59  125 1    
   117   60   61 1    
   118   60   62 1    
   119   60  126 1    
   120   61  127 1    
   121   61  128 1    
   122   61  129 1    
   123   62   63 2    
   124   62   64 am   BACKBONE|DICT|INTERRES
   125   64   65 1    
   126   64  130 1    
   127   65   66 1    
   128   65   69 1    
   129   65  131 1    
   130   66   67 am   BACKBONE|DICT|INTERRES
   131   66   68 2    
   132   67  132 1    
   133   67  133 1    
   134   69   70 1    
   135   69  134 1    
   136   69  135 1    
   137   70   71 1    
   138   71  136 1    
   139   71  137 1    
@<TRIPOS>SUBSTRUCTURE
     1 UNK         1 GROUP             0       ****    0 ROOT    
