@<TRIPOS>MOLECULE
3R137
137   139    1
SMALL
USER_CHARGES


@<TRIPOS>ATOM
      1 CA         27.5062   -2.7433    3.7362 C.3       0 UNK        -0.2020 
      2 C          27.5408   -1.6162    2.7147 C.2       0 UNK         0.4855 
      3 O          27.4381   -0.4471    3.0885 O.2       0 UNK        -0.5197 
      4 N          27.6941   -1.9573    1.4300 N.am      1 UNK        -0.4892 
      5 CA         27.6658   -1.0188    0.3043 C.3       1 UNK         0.0835 
      6 C6         28.4402   -1.5787   -0.9188 C.3       12 UNK        -0.0855 
      7 S7         27.7894   -3.1651   -1.5566 S.3       12 UNK        -0.2931 
      8 C8         29.2858   -4.1977   -1.6317 C.3       12 UNK         0.0378 
      9 C9         30.0722   -3.9559   -2.9126 C.ar      12 UNK        -0.0802 
     10 C10        31.0767   -2.9838   -2.9554 C.ar      12 UNK        -0.0944 
     11 C11        31.8169   -2.7834   -4.1240 C.ar      12 UNK        -0.0787 
     12 C12        31.5526   -3.5647   -5.2523 C.ar      12 UNK        -0.0862 
     13 C13        30.5472   -4.5344   -5.2254 C.ar      12 UNK        -0.0733 
     14 C14        29.8087   -4.7243   -4.0522 C.ar      12 UNK        -0.0832 
     15 C15        30.2772   -5.3890   -6.4579 C.3       12 UNK         0.0240 
     16 S16        29.6560   -4.4136   -7.8665 S.3       12 UNK        -0.2522 
     17 C17        28.0335   -3.8774   -7.2407 C.3       12 UNK        -0.0967 
     18 CA         27.4554   -2.6427   -7.9781 C.3       5 UNK         0.0660 
     19 N          26.0192   -2.5384   -7.7053 N.am      5 UNK        -0.4015 
     20 C          25.1708   -1.6432   -8.2272 C.2       4 UNK         0.4946 
     21 O          25.4814   -0.8158   -9.0809 O.2       4 UNK        -0.5353 
     22 CA         23.7398   -1.6377   -7.6554 C.3       4 UNK         0.0277 
     23 CB         22.8376   -2.5852   -8.4617 C.3       4 UNK        -0.1981 
     24 N          23.6601   -1.9779   -6.2274 N.am      4 UNK        -0.4209 
     25 C          24.3262   -1.3534   -5.2451 C.2       3 UNK         0.4942 
     26 O          25.1086   -0.4188   -5.4367 O.2       3 UNK        -0.5208 
     27 CA         24.1464   -1.9273   -3.8310 C.3       3 UNK         0.0250 
     28 CB         24.8719   -3.2785   -3.7097 C.3       3 UNK        -0.1990 
     29 N          24.6821   -1.0157   -2.8194 N.am      3 UNK        -0.4232 
     30 C          24.0672    0.0903   -2.3788 C.2       2 UNK         0.4993 
     31 O          22.9241    0.4060   -2.7151 O.2       2 UNK        -0.5286 
     32 CA         24.8562    1.0183   -1.4275 C.3       2 UNK         0.0209 
     33 CB         23.9684    1.5864   -0.2988 C.3       2 UNK        -0.1931 
     34 N          26.0985    0.4438   -0.8816 N.am      2 UNK        -0.4546 
     35 C          26.2193   -0.6105   -0.0589 C.2       1 UNK         0.5154 
     36 O          25.2615   -1.2630    0.3660 O.2       1 UNK        -0.5181 
     37 C          28.2131   -1.3414   -7.6202 C.2       5 UNK         0.5014 
     38 O          28.9976   -0.8353   -8.4277 O.2       5 UNK        -0.5248 
     39 N          27.9295   -0.8002   -6.4274 N.am      6 UNK        -0.4434 
     40 CA         28.5038    0.4500   -5.9362 C.3       6 UNK         0.0363 
     41 CB         28.3606    0.5198   -4.4093 C.3       6 UNK        -0.1936 
     42 C          27.8790    1.6762   -6.6160 C.2       6 UNK         0.5081 
     43 O          28.6040    2.6206   -6.9243 O.2       6 UNK        -0.5248 
     44 N          26.5659    1.6313   -6.8870 N.am      7 UNK        -0.4718 
     45 CA         25.8342    2.6692   -7.6251 C.3       7 UNK         0.0273 
     46 CB         24.3280    2.3729   -7.5842 C.3       7 UNK        -0.1935 
     47 C          26.3190    2.8295   -9.0786 C.2       7 UNK         0.5018 
     48 O          26.3884    3.9549   -9.5729 O.2       7 UNK        -0.5186 
     49 N          26.6935    1.7109   -9.7158 N.am      8 UNK        -0.4240 
     50 CA         27.3474    1.6569  -11.0270 C.3       8 UNK         0.0235 
     51 CB         27.2114    0.2326  -11.5924 C.3       8 UNK        -0.2000 
     52 C          28.8293    2.0843  -11.0039 C.2       8 UNK         0.4941 
     53 O          29.4322    2.1766  -12.0740 O.2       8 UNK        -0.5273 
     54 N          29.3913    2.3264   -9.8089 N.am      9 UNK        -0.4262 
     55 CA         30.7724    2.7322   -9.5337 C.3       9 UNK         0.0264 
     56 CB         31.0709    4.1273  -10.1242 C.3       9 UNK        -0.1955 
     57 C          31.8136    1.6707   -9.9325 C.2       9 UNK         0.5031 
     58 O          32.9227    2.0260  -10.3381 O.2       9 UNK        -0.5390 
     59 N          31.4708    0.3824   -9.7683 N.am      10 UNK        -0.4204 
     60 CA         32.3766   -0.7450  -10.0272 C.3       10 UNK         0.0237 
     61 CB         31.5718   -2.0518  -10.0338 C.3       10 UNK        -0.1985 
     62 C          33.5458   -0.8408   -9.0267 C.2       10 UNK         0.4970 
     63 O          34.5240   -1.5330   -9.3107 O.2       10 UNK        -0.4914 
     64 N          33.4279   -0.1478   -7.8868 N.am      11 UNK        -0.4285 
     65 CA         34.4489   -0.0352   -6.8357 C.3       11 UNK         0.1007 
     66 C          35.7289    0.7479   -7.2521 C.2       11 UNK         0.5703 
     67 N          35.7242    1.5022   -8.3461 N.am      11 UNK        -0.7361 
     68 O          36.7462    0.6654   -6.5680 O.2       11 UNK        -0.4986 
     69 C69        33.8614    0.5468   -5.5188 C.3       12 UNK        -0.0947 
     70 S70        32.2931   -0.2308   -5.0076 S.3       12 UNK        -0.2240 
     71 C71        32.9052   -1.7260   -4.1797 C.3       12 UNK         0.0194 
     72 H72        27.6247   -3.7209    3.2693 H         1 UNK         0.0906 
     73 H73        28.3075   -2.6158    4.4635 H         1 UNK         0.0906 
     74 H74        26.5563   -2.7359    4.2702 H         1 UNK         0.0906 
     75 H75        27.7244   -2.9330    1.1690 H         1 UNK         0.3140 
     76 H76        28.1753   -0.1057    0.6219 H         1 UNK         0.1085 
     77 H77        28.4491   -0.8568   -1.7348 H         1 UNK         0.0836 
     78 H78        29.4871   -1.7027   -0.6402 H         1 UNK         0.0836 
     79 H79        29.9116   -4.0230   -0.7552 H         1 UNK         0.0731 
     80 H80        28.9858   -5.2454   -1.5788 H         1 UNK         0.0731 
     81 H81        31.2854   -2.3849   -2.0800 H         1 UNK         0.1312 
     82 H82        32.1231   -3.4097   -6.1583 H         1 UNK         0.1406 
     83 H83        29.0315   -5.4761   -4.0207 H         1 UNK         0.1631 
     84 H84        29.5652   -6.1851   -6.2345 H         1 UNK         0.0717 
     85 H85        31.2034   -5.8824   -6.7556 H         1 UNK         0.0717 
     86 H86        28.0900   -3.6911   -6.1668 H         1 UNK         0.0934 
     87 H87        27.3634   -4.7308   -7.3587 H         1 UNK         0.0934 
     88 H88        27.5611   -2.7966   -9.0542 H         1 UNK         0.0739 
     89 H89        25.6494   -3.1792   -7.0199 H         1 UNK         0.3093 
     90 H90        23.3470   -0.6266   -7.7650 H         1 UNK         0.0818 
     91 H91        21.7979   -2.5125   -8.1420 H         1 UNK         0.0819 
     92 H92        22.8642   -2.3381   -9.5242 H         1 UNK         0.0819 
     93 H93        23.1488   -3.6258   -8.3617 H         1 UNK         0.0819 
     94 H94        23.0434   -2.7396   -5.9821 H         1 UNK         0.3041 
     95 H95        23.0805   -2.0761   -3.6456 H         1 UNK         0.0784 
     96 H96        25.9306   -3.1936   -3.9590 H         1 UNK         0.0793 
     97 H97        24.7996   -3.6767   -2.6971 H         1 UNK         0.0793 
     98 H98        24.4387   -4.0247   -4.3767 H         1 UNK         0.0793 
     99 H99        25.6223   -1.1971   -2.5021 H         1 UNK         0.3024 
    100 H100       25.1665    1.8608   -2.0482 H         1 UNK         0.1171 
    101 H101       23.1305    2.1537   -0.7059 H         1 UNK         0.0786 
    102 H102       24.5297    2.2622    0.3464 H         1 UNK         0.0786 
    103 H103       23.5496    0.7964    0.3253 H         1 UNK         0.0786 
    104 H104       26.9454    0.9091   -1.1790 H         1 UNK         0.2977 
    105 H105       27.1968   -1.2085   -5.8638 H         1 UNK         0.3127 
    106 H106       29.5699    0.4523   -6.1726 H         1 UNK         0.0770 
    107 H107       27.3175    0.4828   -4.0939 H         1 UNK         0.0814 
    108 H108       28.7909    1.4434   -4.0199 H         1 UNK         0.0814 
    109 H109       28.8909   -0.3079   -3.9389 H         1 UNK         0.0814 
    110 H110       26.0295    0.8366   -6.5465 H         1 UNK         0.2983 
    111 H111       26.0090    3.6176   -7.1124 H         1 UNK         0.0947 
    112 H112       23.7588    3.2064   -7.9976 H         1 UNK         0.0806 
    113 H113       23.9774    2.2116   -6.5644 H         1 UNK         0.0806 
    114 H114       24.0788    1.4906   -8.1720 H         1 UNK         0.0806 
    115 H115       26.5101    0.8155   -9.2691 H         1 UNK         0.3000 
    116 H116       26.8256    2.3427  -11.6976 H         1 UNK         0.0850 
    117 H117       27.6564    0.1569  -12.5854 H         1 UNK         0.0810 
    118 H118       26.1649   -0.0584  -11.6853 H         1 UNK         0.0810 
    119 H119       27.7068   -0.5008  -10.9547 H         1 UNK         0.0810 
    120 H120       28.8095    2.2315   -8.9840 H         1 UNK         0.3040 
    121 H121       30.8458    2.8207   -8.4491 H         1 UNK         0.0766 
    122 H122       32.0418    4.4942   -9.7888 H         1 UNK         0.0812 
    123 H123       30.3248    4.8577   -9.8115 H         1 UNK         0.0812 
    124 H124       31.0903    4.1114  -11.2143 H         1 UNK         0.0812 
    125 H125       30.5483    0.1499   -9.4091 H         1 UNK         0.3205 
    126 H126       32.8084   -0.6063  -11.0205 H         1 UNK         0.0754 
    127 H127       32.1973   -2.8981  -10.3209 H         1 UNK         0.0769 
    128 H128       30.7382   -2.0081  -10.7350 H         1 UNK         0.0769 
    129 H129       31.1690   -2.2666   -9.0448 H         1 UNK         0.0769 
    130 H130       32.5777    0.3694   -7.7271 H         1 UNK         0.2981 
    131 H131       34.7830   -1.0520   -6.6234 H         1 UNK         0.0541 
    132 H132       36.5609    2.0009   -8.6042 H         1 UNK         0.3459 
    133 H133       34.8949    1.5777   -8.9174 H         1 UNK         0.3459 
    134 H134       33.6677    1.6150   -5.6337 H         1 UNK         0.0612 
    135 H135       34.5805    0.4552   -4.7025 H         1 UNK         0.0612 
    136 H136       33.7666   -2.1248   -4.7167 H         1 UNK         0.0624 
    137 H137       33.2537   -1.4685   -3.1785 H         1 UNK         0.0624 
@<TRIPOS>BOND
     1    1    2 1    
     2    1   72 1    
     3    1   73 1    
     4    1   74 1    
     5    2    3 2    
     6    2    4 am   BACKBONE|DICT|INTERRES
     7    4    5 1    
     8    4   75 1    
     9    5    6 1    
    10    5   35 1    
    11    5   76 1    
    12    6    7 1    
    13    6   77 1    
    14    6   78 1    
    15    7    8 1    
    16    8    9 1    
    17    8   79 1    
    18    8   80 1    
    19    9   10 ar   
    20    9   14 ar   
    21   10   11 ar   
    22   10   81 1    
    23   11   12 ar   
    24   11   71 1    
    25   12   13 ar   
    26   12   82 1    
    27   13   14 ar   
    28   13   15 1    
    29   14   83 1    
    30   15   16 1    
    31   15   84 1    
    32   15   85 1    
    33   16   17 1    
    34   17   18 1    
    35   17   86 1    
    36   17   87 1    
    37   18   19 1    
    38   18   37 1    
    39   18   88 1    
    40   19   20 am   BACKBONE|DICT|INTERRES
    41   19   89 1    
    42   20   21 2    
    43   20   22 1    
    44   22   23 1    
    45   22   24 1    
    46   22   90 1    
    47   23   91 1    
    48   23   92 1    
    49   23   93 1    
    50   24   25 am   BACKBONE|DICT|INTERRES
    51   24   94 1    
    52   25   26 2    
    53   25   27 1    
    54   27   28 1    
    55   27   29 1    
    56   27   95 1    
    57   28   96 1    
    58   28   97 1    
    59   28   98 1    
    60   29   30 am   BACKBONE|DICT|INTERRES
    61   29   99 1    
    62   30   31 2    
    63   30   32 1    
    64   32   33 1    
    65   32   34 1    
    66   32  100 1    
    67   33  101 1    
    68   33  102 1    
    69   33  103 1    
    70   34   35 am   BACKBONE|DICT|INTERRES
    71   34  104 1    
    72   35   36 2    
    73   37   38 2    
    74   37   39 am   BACKBONE|DICT|INTERRES
    75   39   40 1    
    76   39  105 1    
    77   40   41 1    
    78   40   42 1    
    79   40  106 1    
    80   41  107 1    
    81   41  108 1    
    82   41  109 1    
    83   42   43 2    
    84   42   44 am   BACKBONE|DICT|INTERRES
    85   44   45 1    
    86   44  110 1    
    87   45   46 1    
    88   45   47 1    
    89   45  111 1    
    90   46  112 1    
    91   46  113 1    
    92   46  114 1    
    93   47   48 2    
    94   47   49 am   BACKBONE|DICT|INTERRES
    95   49   50 1    
    96   49  115 1    
    97   50   51 1    
    98   50   52 1    
    99   50  116 1    
   100   51  117 1    
   101   51  118 1    
   102   51  119 1    
   103   52   53 2    
   104   52   54 am   BACKBONE|DICT|INTERRES
   105   54   55 1    
   106   54  120 1    
   107   55   56 1    
   108   55   57 1    
   109   55  121 1    
   110   56  122 1    
   111   56  123 1    
   112   56  124 1    
   113   57   58 2    
   114   57   59 am   BACKBONE|DICT|INTERRES
   115   59   60 1    
   116   59  125 1    
   117   60   61 1    
   118   60   62 1    
   119   60  126 1    
   120   61  127 1    
   121   61  128 1    
   122   61  129 1    
   123   62   63 2    
   124   62   64 am   BACKBONE|DICT|INTERRES
   125   64   65 1    
   126   64  130 1    
   127   65   66 1    
   128   65   69 1    
   129   65  131 1    
   130   66   67 am   BACKBONE|DICT|INTERRES
   131   66   68 2    
   132   67  132 1    
   133   67  133 1    
   134   69   70 1    
   135   69  134 1    
   136   69  135 1    
   137   70   71 1    
   138   71  136 1    
   139   71  137 1    
@<TRIPOS>SUBSTRUCTURE
     1 UNK         1 GROUP             0       ****    0 ROOT    
