@<TRIPOS>MOLECULE
3R137
137   139    1
SMALL
USER_CHARGES


@<TRIPOS>ATOM
      1 CA         31.0140    0.5941   -0.2212 C.3       0 UNK        -0.2020 
      2 C          30.0716   -0.3481   -0.9553 C.2       0 UNK         0.4855 
      3 O          29.5292    0.0203   -1.9956 O.2       0 UNK        -0.5197 
      4 N          29.8821   -1.5636   -0.4277 N.am      1 UNK        -0.4892 
      5 CA         29.0111   -2.6016   -0.9933 C.3       1 UNK         0.0835 
      6 C6         29.1940   -3.9620   -0.2749 C.3       12 UNK        -0.0855 
      7 S7         30.9273   -4.5313   -0.2550 S.3       12 UNK        -0.2931 
      8 C8         30.9397   -5.7450   -1.6125 C.3       12 UNK         0.0378 
      9 C9         30.8437   -5.0926   -2.9864 C.ar      12 UNK        -0.0802 
     10 C10        31.8580   -4.2387   -3.4286 C.ar      12 UNK        -0.0944 
     11 C11        31.8190   -3.6840   -4.7120 C.ar      12 UNK        -0.0787 
     12 C12        30.7563   -4.0077   -5.5620 C.ar      12 UNK        -0.0862 
     13 C13        29.7358   -4.8709   -5.1397 C.ar      12 UNK        -0.0733 
     14 C14        29.7816   -5.3965   -3.8436 C.ar      12 UNK        -0.0832 
     15 C15        28.6389   -5.3434   -6.0942 C.3       12 UNK         0.0240 
     16 S16        28.0862   -4.0976   -7.3050 S.3       12 UNK        -0.2522 
     17 C17        26.8925   -3.1458   -6.3147 C.3       12 UNK        -0.0967 
     18 CA         26.1879   -2.0596   -7.1662 C.3       5 UNK         0.0660 
     19 N          24.9055   -1.6498   -6.5971 N.am      5 UNK        -0.4015 
     20 C          23.8856   -1.1459   -7.3079 C.2       4 UNK         0.4946 
     21 O          23.8730   -1.0788   -8.5372 O.2       4 UNK        -0.5353 
     22 CA         22.6698   -0.6173   -6.5238 C.3       4 UNK         0.0277 
     23 CB         21.5699   -1.6891   -6.4529 C.3       4 UNK        -0.1981 
     24 N          22.9981   -0.1723   -5.1673 N.am      4 UNK        -0.4209 
     25 C          23.7575    0.8937   -4.8760 C.2       3 UNK         0.4942 
     26 O          24.2239    1.6564   -5.7217 O.2       3 UNK        -0.5208 
     27 CA         24.1022    1.1032   -3.3904 C.3       3 UNK         0.0250 
     28 CB         23.0059    1.9242   -2.6930 C.3       3 UNK        -0.1990 
     29 N          24.3277   -0.1480   -2.6527 N.am      3 UNK        -0.4232 
     30 C          25.2607   -1.0586   -2.9644 C.2       2 UNK         0.4993 
     31 O          26.0031   -0.9706   -3.9456 O.2       2 UNK        -0.5286 
     32 CA         25.3354   -2.3151   -2.0890 C.3       2 UNK         0.0209 
     33 CB         24.5809   -3.4756   -2.7588 C.3       2 UNK        -0.1931 
     34 N          26.7352   -2.6971   -1.9031 N.am      2 UNK        -0.4546 
     35 C          27.5259   -2.1814   -0.9546 C.2       1 UNK         0.5154 
     36 O          27.1155   -1.4409   -0.0554 O.2       1 UNK        -0.5181 
     37 C          27.0750   -0.8214   -7.3716 C.2       5 UNK         0.5014 
     38 O          27.5405   -0.5921   -8.4860 O.2       5 UNK        -0.5248 
     39 N          27.2460   -0.0202   -6.3077 N.am      6 UNK        -0.4434 
     40 CA         28.0667    1.1969   -6.2619 C.3       6 UNK         0.0363 
     41 CB         27.9763    1.8059   -4.8555 C.3       6 UNK        -0.1936 
     42 C          27.7138    2.2563   -7.3224 C.2       6 UNK         0.5081 
     43 O          28.5848    3.0293   -7.7190 O.2       6 UNK        -0.5248 
     44 N          26.4595    2.2550   -7.7909 N.am      7 UNK        -0.4718 
     45 CA         25.9758    3.0557   -8.9162 C.3       7 UNK         0.0273 
     46 CB         24.4518    2.8818   -9.0232 C.3       7 UNK        -0.1935 
     47 C          26.6467    2.7341  -10.2690 C.2       7 UNK         0.5018 
     48 O          26.5923    3.5789  -11.1644 O.2       7 UNK        -0.5186 
     49 N          27.2498    1.5448  -10.4148 N.am      8 UNK        -0.4240 
     50 CA         27.8922    1.0820  -11.6459 C.3       8 UNK         0.0235 
     51 CB         26.8366    0.4472  -12.5750 C.3       8 UNK        -0.2000 
     52 C          29.0701    0.1400  -11.3398 C.2       8 UNK         0.4941 
     53 O          29.2339   -0.8743  -12.0216 O.2       8 UNK        -0.5273 
     54 N          29.8786    0.4841  -10.3302 N.am      9 UNK        -0.4262 
     55 CA         31.0622   -0.2640   -9.9090 C.3       9 UNK         0.0264 
     56 CB         30.6647   -1.3580   -8.8983 C.3       9 UNK        -0.1955 
     57 C          32.0719    0.7053   -9.2894 C.2       9 UNK         0.5031 
     58 O          31.7021    1.8222   -8.9182 O.2       9 UNK        -0.5390 
     59 N          33.3212    0.2428   -9.1398 N.am      10 UNK        -0.4204 
     60 CA         34.4361    0.9869   -8.5358 C.3       10 UNK         0.0237 
     61 CB         35.7229    0.1537   -8.6559 C.3       10 UNK        -0.1985 
     62 C          34.2044    1.4059   -7.0705 C.2       10 UNK         0.4970 
     63 O          34.8072    2.3818   -6.6222 O.2       10 UNK        -0.4914 
     64 N          33.3294    0.6779   -6.3661 N.am      11 UNK        -0.4285 
     65 CA         32.8364    1.0158   -5.0237 C.3       11 UNK         0.1007 
     66 C          31.8476    2.2193   -4.9889 C.2       11 UNK         0.5703 
     67 N          31.3546    2.7194   -6.1165 N.am      11 UNK        -0.7361 
     68 O          31.5375    2.7232   -3.9126 O.2       11 UNK        -0.4986 
     69 C69        32.2398   -0.2261   -4.3109 C.3       12 UNK        -0.0947 
     70 S70        33.4888   -1.5260   -4.0417 S.3       12 UNK        -0.2240 
     71 C71        32.9666   -2.8155   -5.2206 C.3       12 UNK         0.0194 
     72 H72        31.8153    0.9156   -0.8863 H         1 UNK         0.0906 
     73 H73        30.4730    1.4795    0.1117 H         1 UNK         0.0906 
     74 H74        31.4659    0.1226    0.6513 H         1 UNK         0.0906 
     75 H75        30.3519   -1.8166    0.4296 H         1 UNK         0.3140 
     76 H76        29.2973   -2.7211   -2.0412 H         1 UNK         0.1085 
     77 H77        28.8580   -3.8918    0.7618 H         1 UNK         0.0836 
     78 H78        28.5716   -4.7298   -0.7387 H         1 UNK         0.0836 
     79 H79        31.8704   -6.3119   -1.5618 H         1 UNK         0.0731 
     80 H80        30.1372   -6.4684   -1.4598 H         1 UNK         0.0731 
     81 H81        32.6917   -4.0222   -2.7745 H         1 UNK         0.1312 
     82 H82        30.7473   -3.6192   -6.5708 H         1 UNK         0.1406 
     83 H83        29.0128   -6.0846   -3.5180 H         1 UNK         0.1631 
     84 H84        27.7724   -5.7055   -5.5385 H         1 UNK         0.0717 
     85 H85        29.0251   -6.2009   -6.6464 H         1 UNK         0.0717 
     86 H86        26.1531   -3.8521   -5.9347 H         1 UNK         0.0934 
     87 H87        27.3931   -2.7275   -5.4389 H         1 UNK         0.0934 
     88 H88        25.9869   -2.4866   -8.1519 H         1 UNK         0.0739 
     89 H89        24.8699   -1.5949   -5.5874 H         1 UNK         0.3093 
     90 H90        22.2776    0.2419   -7.0725 H         1 UNK         0.0818 
     91 H91        20.6698   -1.3039   -5.9734 H         1 UNK         0.0819 
     92 H92        21.2845   -2.0210   -7.4523 H         1 UNK         0.0819 
     93 H93        21.8970   -2.5699   -5.8987 H         1 UNK         0.0819 
     94 H94        22.6493   -0.7339   -4.4043 H         1 UNK         0.3041 
     95 H95        25.0304    1.6756   -3.3489 H         1 UNK         0.0784 
     96 H96        22.8350    2.8676   -3.2138 H         1 UNK         0.0793 
     97 H97        22.0549    1.3908   -2.6646 H         1 UNK         0.0793 
     98 H98        23.2849    2.1696   -1.6680 H         1 UNK         0.0793 
     99 H99        23.7469   -0.3015   -1.8404 H         1 UNK         0.3024 
    100 H100       24.8761   -2.1110   -1.1187 H         1 UNK         0.1171 
    101 H101       23.5275   -3.2294   -2.8995 H         1 UNK         0.0786 
    102 H102       24.6212   -4.3773   -2.1473 H         1 UNK         0.0786 
    103 H103       24.9929   -3.7189   -3.7385 H         1 UNK         0.0786 
    104 H104       27.1442   -3.2668   -2.6289 H         1 UNK         0.2977 
    105 H105       26.8111   -0.2967   -5.4281 H         1 UNK         0.3127 
    106 H106       29.0993    0.8916   -6.4407 H         1 UNK         0.0770 
    107 H107       26.9647    2.1430   -4.6309 H         1 UNK         0.0814 
    108 H108       28.6368    2.6682   -4.7583 H         1 UNK         0.0814 
    109 H109       28.2695    1.0866   -4.0912 H         1 UNK         0.0814 
    110 H110       25.7888    1.6388   -7.3478 H         1 UNK         0.2983 
    111 H111       26.1895    4.1029   -8.6923 H         1 UNK         0.0947 
    112 H112       24.0438    3.4831   -9.8368 H         1 UNK         0.0806 
    113 H113       23.9511    3.1958   -8.1069 H         1 UNK         0.0806 
    114 H114       24.1788    1.8429   -9.2147 H         1 UNK         0.0806 
    115 H115       27.2775    0.8918   -9.6320 H         1 UNK         0.3000 
    116 H116       28.3285    1.9390  -12.1634 H         1 UNK         0.0850 
    117 H117       27.2820    0.1272  -13.5179 H         1 UNK         0.0810 
    118 H118       26.0435    1.1539  -12.8195 H         1 UNK         0.0810 
    119 H119       26.3762   -0.4277  -12.1143 H         1 UNK         0.0810 
    120 H120       29.7320    1.3548   -9.8324 H         1 UNK         0.3040 
    121 H121       31.5286   -0.7242  -10.7828 H         1 UNK         0.0766 
    122 H122       31.5199   -1.9738   -8.6194 H         1 UNK         0.0812 
    123 H123       29.9106   -2.0270   -9.3140 H         1 UNK         0.0812 
    124 H124       30.2545   -0.9300   -7.9828 H         1 UNK         0.0812 
    125 H125       33.5343   -0.6862   -9.4752 H         1 UNK         0.3205 
    126 H126       34.5663    1.9044   -9.1136 H         1 UNK         0.0754 
    127 H127       36.5771    0.6924   -8.2429 H         1 UNK         0.0769 
    128 H128       35.9575   -0.0689   -9.6971 H         1 UNK         0.0769 
    129 H129       35.6437   -0.7919   -8.1178 H         1 UNK         0.0769 
    130 H130       32.8862   -0.1057   -6.8168 H         1 UNK         0.2981 
    131 H131       33.6991    1.3395   -4.4381 H         1 UNK         0.0541 
    132 H132       30.7126    3.4939   -6.0728 H         1 UNK         0.3459 
    133 H133       31.5947    2.3337   -7.0237 H         1 UNK         0.3459 
    134 H134       31.3880   -0.6266   -4.8637 H         1 UNK         0.0612 
    135 H135       31.8604    0.0499   -3.3273 H         1 UNK         0.0612 
    136 H136       32.7132   -2.3480   -6.1729 H         1 UNK         0.0624 
    137 H137       33.8211   -3.4642   -5.4166 H         1 UNK         0.0624 
@<TRIPOS>BOND
     1    1    2 1    
     2    1   72 1    
     3    1   73 1    
     4    1   74 1    
     5    2    3 2    
     6    2    4 am   BACKBONE|DICT|INTERRES
     7    4    5 1    
     8    4   75 1    
     9    5    6 1    
    10    5   35 1    
    11    5   76 1    
    12    6    7 1    
    13    6   77 1    
    14    6   78 1    
    15    7    8 1    
    16    8    9 1    
    17    8   79 1    
    18    8   80 1    
    19    9   10 ar   
    20    9   14 ar   
    21   10   11 ar   
    22   10   81 1    
    23   11   12 ar   
    24   11   71 1    
    25   12   13 ar   
    26   12   82 1    
    27   13   14 ar   
    28   13   15 1    
    29   14   83 1    
    30   15   16 1    
    31   15   84 1    
    32   15   85 1    
    33   16   17 1    
    34   17   18 1    
    35   17   86 1    
    36   17   87 1    
    37   18   19 1    
    38   18   37 1    
    39   18   88 1    
    40   19   20 am   BACKBONE|DICT|INTERRES
    41   19   89 1    
    42   20   21 2    
    43   20   22 1    
    44   22   23 1    
    45   22   24 1    
    46   22   90 1    
    47   23   91 1    
    48   23   92 1    
    49   23   93 1    
    50   24   25 am   BACKBONE|DICT|INTERRES
    51   24   94 1    
    52   25   26 2    
    53   25   27 1    
    54   27   28 1    
    55   27   29 1    
    56   27   95 1    
    57   28   96 1    
    58   28   97 1    
    59   28   98 1    
    60   29   30 am   BACKBONE|DICT|INTERRES
    61   29   99 1    
    62   30   31 2    
    63   30   32 1    
    64   32   33 1    
    65   32   34 1    
    66   32  100 1    
    67   33  101 1    
    68   33  102 1    
    69   33  103 1    
    70   34   35 am   BACKBONE|DICT|INTERRES
    71   34  104 1    
    72   35   36 2    
    73   37   38 2    
    74   37   39 am   BACKBONE|DICT|INTERRES
    75   39   40 1    
    76   39  105 1    
    77   40   41 1    
    78   40   42 1    
    79   40  106 1    
    80   41  107 1    
    81   41  108 1    
    82   41  109 1    
    83   42   43 2    
    84   42   44 am   BACKBONE|DICT|INTERRES
    85   44   45 1    
    86   44  110 1    
    87   45   46 1    
    88   45   47 1    
    89   45  111 1    
    90   46  112 1    
    91   46  113 1    
    92   46  114 1    
    93   47   48 2    
    94   47   49 am   BACKBONE|DICT|INTERRES
    95   49   50 1    
    96   49  115 1    
    97   50   51 1    
    98   50   52 1    
    99   50  116 1    
   100   51  117 1    
   101   51  118 1    
   102   51  119 1    
   103   52   53 2    
   104   52   54 am   BACKBONE|DICT|INTERRES
   105   54   55 1    
   106   54  120 1    
   107   55   56 1    
   108   55   57 1    
   109   55  121 1    
   110   56  122 1    
   111   56  123 1    
   112   56  124 1    
   113   57   58 2    
   114   57   59 am   BACKBONE|DICT|INTERRES
   115   59   60 1    
   116   59  125 1    
   117   60   61 1    
   118   60   62 1    
   119   60  126 1    
   120   61  127 1    
   121   61  128 1    
   122   61  129 1    
   123   62   63 2    
   124   62   64 am   BACKBONE|DICT|INTERRES
   125   64   65 1    
   126   64  130 1    
   127   65   66 1    
   128   65   69 1    
   129   65  131 1    
   130   66   67 am   BACKBONE|DICT|INTERRES
   131   66   68 2    
   132   67  132 1    
   133   67  133 1    
   134   69   70 1    
   135   69  134 1    
   136   69  135 1    
   137   70   71 1    
   138   71  136 1    
   139   71  137 1    
@<TRIPOS>SUBSTRUCTURE
     1 UNK         1 GROUP             0       ****    0 ROOT    
