@<TRIPOS>MOLECULE
3R137
137   139    1
SMALL
USER_CHARGES


@<TRIPOS>ATOM
      1 CA         26.7478   -1.2335    3.3533 C.3       0 UNK        -0.2020 
      2 C          26.6346   -0.6965    1.9346 C.2       0 UNK         0.4855 
      3 O          26.1091    0.3985    1.7336 O.2       0 UNK        -0.5197 
      4 N          27.1231   -1.4587    0.9475 N.am      1 UNK        -0.4892 
      5 CA         27.0804   -1.1143   -0.4800 C.3       1 UNK         0.0835 
      6 C6         28.0935   -1.9558   -1.2978 C.3       12 UNK        -0.0855 
      7 S7         27.8253   -3.7629   -1.1687 S.3       12 UNK        -0.2931 
      8 C8         29.5341   -4.3929   -1.1325 C.3       12 UNK         0.0378 
      9 C9         30.2724   -4.0911   -2.4286 C.ar      12 UNK        -0.0802 
     10 C10        31.3335   -3.1794   -2.4437 C.ar      12 UNK        -0.0944 
     11 C11        31.9958   -2.8838   -3.6390 C.ar      12 UNK        -0.0787 
     12 C12        31.6036   -3.5203   -4.8187 C.ar      12 UNK        -0.0862 
     13 C13        30.5150   -4.3982   -4.8229 C.ar      12 UNK        -0.0733 
     14 C14        29.8706   -4.7013   -3.6210 C.ar      12 UNK        -0.0832 
     15 C15        29.9830   -4.9470   -6.1393 C.3       12 UNK         0.0240 
     16 S16        28.5643   -3.9666   -6.7457 S.3       12 UNK        -0.2522 
     17 C17        29.2899   -2.2945   -6.7926 C.3       12 UNK        -0.0967 
     18 CA         28.3225   -1.1823   -7.2504 C.3       5 UNK         0.0660 
     19 N          27.0910   -1.1440   -6.4499 N.am      5 UNK        -0.4015 
     20 C          26.0911   -0.2571   -6.5715 C.2       4 UNK         0.4946 
     21 O          26.1147    0.6840   -7.3683 O.2       4 UNK        -0.5353 
     22 CA         24.8936   -0.3892   -5.6116 C.3       4 UNK         0.0277 
     23 CB         23.5496   -0.1408   -6.3281 C.3       4 UNK        -0.1981 
     24 N          24.8625   -1.6300   -4.8231 N.am      4 UNK        -0.4209 
     25 C          24.6500   -2.8838   -5.2602 C.2       3 UNK         0.4942 
     26 O          24.4921   -3.1770   -6.4451 O.2       3 UNK        -0.5208 
     27 CA         24.6269   -4.0145   -4.2095 C.3       3 UNK         0.0250 
     28 CB         25.9187   -4.8443   -4.2905 C.3       3 UNK        -0.1990 
     29 N          24.4583   -3.5404   -2.8336 N.am      3 UNK        -0.4232 
     30 C          23.3448   -2.9805   -2.3373 C.2       2 UNK         0.4993 
     31 O          22.2813   -2.9147   -2.9541 O.2       2 UNK        -0.5286 
     32 CA         23.4368   -2.3554   -0.9307 C.3       2 UNK         0.0209 
     33 CB         22.7625   -3.2658    0.1086 C.3       2 UNK        -0.1931 
     34 N          24.8038   -2.0545   -0.4856 N.am      2 UNK        -0.4546 
     35 C          25.6639   -1.2164   -1.0861 C.2       1 UNK         0.5154 
     36 O          25.3937   -0.5821   -2.1075 O.2       1 UNK        -0.5181 
     37 C          29.0899    0.1531   -7.2438 C.2       5 UNK         0.5014 
     38 O          29.6730    0.5157   -8.2651 O.2       5 UNK        -0.5248 
     39 N          29.0723    0.8591   -6.1034 N.am      6 UNK        -0.4434 
     40 CA         29.6916    2.1719   -5.9030 C.3       6 UNK         0.0363 
     41 CB         29.5145    2.5940   -4.4362 C.3       6 UNK        -0.1936 
     42 C          29.1522    3.2626   -6.8458 C.2       6 UNK         0.5081 
     43 O          29.9032    4.1698   -7.2021 O.2       6 UNK        -0.5248 
     44 N          27.8788    3.1460   -7.2440 N.am      7 UNK        -0.4718 
     45 CA         27.2384    4.0170   -8.2270 C.3       7 UNK         0.0273 
     46 CB         25.7899    4.2954   -7.7913 C.3       7 UNK        -0.1935 
     47 C          27.2674    3.3837   -9.6250 C.2       7 UNK         0.5018 
     48 O          27.5592    4.0815  -10.5965 O.2       7 UNK        -0.5186 
     49 N          26.9489    2.0838   -9.7058 N.am      8 UNK        -0.4240 
     50 CA         26.7646    1.3533  -10.9609 C.3       8 UNK         0.0235 
     51 CB         26.0252    0.0360  -10.6751 C.3       8 UNK        -0.2000 
     52 C          28.0602    1.0806  -11.7429 C.2       8 UNK         0.4941 
     53 O          28.0147    1.0737  -12.9741 O.2       8 UNK        -0.5273 
     54 N          29.1730    0.8325  -11.0395 N.am      9 UNK        -0.4262 
     55 CA         30.4392    0.3905  -11.6332 C.3       9 UNK         0.0264 
     56 CB         30.4775   -1.1511  -11.6336 C.3       9 UNK        -0.1955 
     57 C          31.6691    0.9907  -10.9313 C.2       9 UNK         0.5031 
     58 O          32.7621    0.4376  -11.0675 O.2       9 UNK        -0.5390 
     59 N          31.4840    2.0796  -10.1671 N.am      10 UNK        -0.4204 
     60 CA         32.4997    2.7649   -9.3500 C.3       10 UNK         0.0237 
     61 CB         33.4917    3.5266  -10.2548 C.3       10 UNK        -0.1985 
     62 C          33.2095    1.8349   -8.3389 C.2       10 UNK         0.4970 
     63 O          34.4000    2.0075   -8.0724 O.2       10 UNK        -0.4914 
     64 N          32.4632    0.8531   -7.8160 N.am      11 UNK        -0.4285 
     65 CA         32.9230   -0.2480   -6.9554 C.3       11 UNK         0.1007 
     66 C          33.8237   -1.3024   -7.6705 C.2       11 UNK         0.5703 
     67 N          33.9594   -1.2881   -8.9918 N.am      11 UNK        -0.7361 
     68 O          34.3782   -2.1847   -7.0208 O.2       11 UNK        -0.4986 
     69 C69        33.4885    0.2356   -5.5797 C.3       12 UNK        -0.0947 
     70 S70        32.4135   -0.2220   -4.1790 S.3       12 UNK        -0.2240 
     71 C71        33.0958   -1.8352   -3.6743 C.3       12 UNK         0.0194 
     72 H72        25.7573   -1.3364    3.7957 H         1 UNK         0.0906 
     73 H73        27.3263   -0.5456    3.9696 H         1 UNK         0.0906 
     74 H74        27.2357   -2.2076    3.3838 H         1 UNK         0.0906 
     75 H75        27.5473   -2.3510    1.1627 H         1 UNK         0.3140 
     76 H76        27.3737   -0.0660   -0.5744 H         1 UNK         0.1085 
     77 H77        28.0721   -1.6752   -2.3531 H         1 UNK         0.0836 
     78 H78        29.1030   -1.7205   -0.9573 H         1 UNK         0.0836 
     79 H79        30.0580   -3.9705   -0.2735 H         1 UNK         0.0731 
     80 H80        29.5104   -5.4724   -0.9768 H         1 UNK         0.0731 
     81 H81        31.6302   -2.6819   -1.5305 H         1 UNK         0.1312 
     82 H82        32.1020   -3.2760   -5.7467 H         1 UNK         0.1406 
     83 H83        29.0257   -5.3767   -3.6191 H         1 UNK         0.1631 
     84 H84        30.7677   -4.9528   -6.8976 H         1 UNK         0.0717 
     85 H85        29.6716   -5.9846   -6.0108 H         1 UNK         0.0717 
     86 H86        29.6504   -2.0512   -5.7923 H         1 UNK         0.0934 
     87 H87        30.1663   -2.3329   -7.4434 H         1 UNK         0.0934 
     88 H88        28.0290   -1.3855   -8.2814 H         1 UNK         0.0739 
     89 H89        26.9724   -1.9008   -5.7931 H         1 UNK         0.3093 
     90 H90        25.0205    0.4113   -4.8812 H         1 UNK         0.0818 
     91 H91        22.7113   -0.2125   -5.6351 H         1 UNK         0.0819 
     92 H92        23.5194    0.8565   -6.7689 H         1 UNK         0.0819 
     93 H93        23.3813   -0.8539   -7.1355 H         1 UNK         0.0819 
     94 H94        24.9950   -1.4895   -3.8250 H         1 UNK         0.3041 
     95 H95        23.7829   -4.6648   -4.4487 H         1 UNK         0.0784 
     96 H96        26.0489   -5.2685   -5.2871 H         1 UNK         0.0793 
     97 H97        26.8000   -4.2381   -4.0779 H         1 UNK         0.0793 
     98 H98        25.9049   -5.6758   -3.5855 H         1 UNK         0.0793 
     99 H99        25.2769   -3.5705   -2.2414 H         1 UNK         0.3024 
    100 H100       22.8900   -1.4106   -0.9695 H         1 UNK         0.1171 
    101 H101       22.7320   -2.7935    1.0908 H         1 UNK         0.0786 
    102 H102       21.7319   -3.4859   -0.1739 H         1 UNK         0.0786 
    103 H103       23.2836   -4.2189    0.2087 H         1 UNK         0.0786 
    104 H104       25.1298   -2.5392    0.3382 H         1 UNK         0.2977 
    105 H105       28.5746    0.4746   -5.3142 H         1 UNK         0.3127 
    106 H106       30.7603    2.0707   -6.0948 H         1 UNK         0.0770 
    107 H107       28.4621    2.6900   -4.1663 H         1 UNK         0.0814 
    108 H108       29.9884    3.5588   -4.2492 H         1 UNK         0.0814 
    109 H109       29.9735    1.8746   -3.7577 H         1 UNK         0.0814 
    110 H110       27.3447    2.3397   -6.9409 H         1 UNK         0.2983 
    111 H111       27.7628    4.9740   -8.2816 H         1 UNK         0.0947 
    112 H112       25.2837    4.9414   -8.5099 H         1 UNK         0.0806 
    113 H113       25.7589    4.7995   -6.8253 H         1 UNK         0.0806 
    114 H114       25.2053    3.3780   -7.7079 H         1 UNK         0.0806 
    115 H115       26.6947    1.5892   -8.8526 H         1 UNK         0.3000 
    116 H116       26.1238    1.9617  -11.6031 H         1 UNK         0.0850 
    117 H117       25.0641    0.2166  -10.1931 H         1 UNK         0.0810 
    118 H118       26.6047   -0.6200  -10.0259 H         1 UNK         0.0810 
    119 H119       25.8275   -0.5102  -11.5985 H         1 UNK         0.0810 
    120 H120       29.1358    0.8265  -10.0217 H         1 UNK         0.3040 
    121 H121       30.5006    0.7347  -12.6675 H         1 UNK         0.0766 
    122 H122       29.6266   -1.5698  -12.1710 H         1 UNK         0.0812 
    123 H123       30.4625   -1.5500  -10.6184 H         1 UNK         0.0812 
    124 H124       31.3785   -1.5265  -12.1205 H         1 UNK         0.0812 
    125 H125       30.5481    2.4558  -10.1094 H         1 UNK         0.3205 
    126 H126       31.9666    3.5051   -8.7531 H         1 UNK         0.0754 
    127 H127       34.1025    2.8450  -10.8477 H         1 UNK         0.0769 
    128 H128       34.1707    4.1419   -9.6631 H         1 UNK         0.0769 
    129 H129       32.9700    4.1931  -10.9417 H         1 UNK         0.0769 
    130 H130       31.4918    0.7881   -8.1102 H         1 UNK         0.2981 
    131 H131       32.0101   -0.8103   -6.7629 H         1 UNK         0.0541 
    132 H132       34.5349   -1.9904   -9.4273 H         1 UNK         0.3459 
    133 H133       33.5116   -0.5828   -9.5686 H         1 UNK         0.3459 
    134 H134       33.5776    1.3221   -5.5537 H         1 UNK         0.0612 
    135 H135       34.5005   -0.1264   -5.3907 H         1 UNK         0.0612 
    136 H136       33.5607   -1.7332   -2.6927 H         1 UNK         0.0624 
    137 H137       33.8853   -2.1546   -4.3550 H         1 UNK         0.0624 
@<TRIPOS>BOND
     1    1    2 1    
     2    1   72 1    
     3    1   73 1    
     4    1   74 1    
     5    2    3 2    
     6    2    4 am   BACKBONE|DICT|INTERRES
     7    4    5 1    
     8    4   75 1    
     9    5    6 1    
    10    5   35 1    
    11    5   76 1    
    12    6    7 1    
    13    6   77 1    
    14    6   78 1    
    15    7    8 1    
    16    8    9 1    
    17    8   79 1    
    18    8   80 1    
    19    9   10 ar   
    20    9   14 ar   
    21   10   11 ar   
    22   10   81 1    
    23   11   12 ar   
    24   11   71 1    
    25   12   13 ar   
    26   12   82 1    
    27   13   14 ar   
    28   13   15 1    
    29   14   83 1    
    30   15   16 1    
    31   15   84 1    
    32   15   85 1    
    33   16   17 1    
    34   17   18 1    
    35   17   86 1    
    36   17   87 1    
    37   18   19 1    
    38   18   37 1    
    39   18   88 1    
    40   19   20 am   BACKBONE|DICT|INTERRES
    41   19   89 1    
    42   20   21 2    
    43   20   22 1    
    44   22   23 1    
    45   22   24 1    
    46   22   90 1    
    47   23   91 1    
    48   23   92 1    
    49   23   93 1    
    50   24   25 am   BACKBONE|DICT|INTERRES
    51   24   94 1    
    52   25   26 2    
    53   25   27 1    
    54   27   28 1    
    55   27   29 1    
    56   27   95 1    
    57   28   96 1    
    58   28   97 1    
    59   28   98 1    
    60   29   30 am   BACKBONE|DICT|INTERRES
    61   29   99 1    
    62   30   31 2    
    63   30   32 1    
    64   32   33 1    
    65   32   34 1    
    66   32  100 1    
    67   33  101 1    
    68   33  102 1    
    69   33  103 1    
    70   34   35 am   BACKBONE|DICT|INTERRES
    71   34  104 1    
    72   35   36 2    
    73   37   38 2    
    74   37   39 am   BACKBONE|DICT|INTERRES
    75   39   40 1    
    76   39  105 1    
    77   40   41 1    
    78   40   42 1    
    79   40  106 1    
    80   41  107 1    
    81   41  108 1    
    82   41  109 1    
    83   42   43 2    
    84   42   44 am   BACKBONE|DICT|INTERRES
    85   44   45 1    
    86   44  110 1    
    87   45   46 1    
    88   45   47 1    
    89   45  111 1    
    90   46  112 1    
    91   46  113 1    
    92   46  114 1    
    93   47   48 2    
    94   47   49 am   BACKBONE|DICT|INTERRES
    95   49   50 1    
    96   49  115 1    
    97   50   51 1    
    98   50   52 1    
    99   50  116 1    
   100   51  117 1    
   101   51  118 1    
   102   51  119 1    
   103   52   53 2    
   104   52   54 am   BACKBONE|DICT|INTERRES
   105   54   55 1    
   106   54  120 1    
   107   55   56 1    
   108   55   57 1    
   109   55  121 1    
   110   56  122 1    
   111   56  123 1    
   112   56  124 1    
   113   57   58 2    
   114   57   59 am   BACKBONE|DICT|INTERRES
   115   59   60 1    
   116   59  125 1    
   117   60   61 1    
   118   60   62 1    
   119   60  126 1    
   120   61  127 1    
   121   61  128 1    
   122   61  129 1    
   123   62   63 2    
   124   62   64 am   BACKBONE|DICT|INTERRES
   125   64   65 1    
   126   64  130 1    
   127   65   66 1    
   128   65   69 1    
   129   65  131 1    
   130   66   67 am   BACKBONE|DICT|INTERRES
   131   66   68 2    
   132   67  132 1    
   133   67  133 1    
   134   69   70 1    
   135   69  134 1    
   136   69  135 1    
   137   70   71 1    
   138   71  136 1    
   139   71  137 1    
@<TRIPOS>SUBSTRUCTURE
     1 UNK         1 GROUP             0       ****    0 ROOT    
