@<TRIPOS>MOLECULE
3R137
137   139    1
SMALL
USER_CHARGES


@<TRIPOS>ATOM
      1 CA         24.1569   -5.1613   -1.1440 C.3       0 UNK        -0.2020 
      2 C          25.0313   -4.0100   -0.6723 C.2       0 UNK         0.4855 
      3 O          24.5134   -2.9987   -0.1970 O.2       0 UNK        -0.5197 
      4 N          26.3547   -4.1575   -0.8081 N.am      1 UNK        -0.4892 
      5 CA         27.3904   -3.1750   -0.4682 C.3       1 UNK         0.0835 
      6 C6         28.8282   -3.7444   -0.6443 C.3       12 UNK        -0.0855 
      7 S7         29.0394   -4.9119   -2.0402 S.3       12 UNK        -0.2931 
      8 C8         30.7228   -4.5315   -2.6144 C.3       12 UNK         0.0378 
      9 C9         30.7234   -3.4313   -3.6635 C.ar      12 UNK        -0.0802 
     10 C10        30.3530   -3.7276   -4.9772 C.ar      12 UNK        -0.0944 
     11 C11        30.3682   -2.7391   -5.9636 C.ar      12 UNK        -0.0787 
     12 C12        30.7779   -1.4440   -5.6250 C.ar      12 UNK        -0.0862 
     13 C13        31.1345   -1.1263   -4.3086 C.ar      12 UNK        -0.0733 
     14 C14        31.1058   -2.1287   -3.3333 C.ar      12 UNK        -0.0832 
     15 C15        31.5747    0.2849   -3.9214 C.3       12 UNK         0.0240 
     16 S16        30.4999    1.6225   -4.5484 S.3       12 UNK        -0.2522 
     17 C17        28.8281    1.0638   -4.0800 C.3       12 UNK        -0.0967 
     18 CA         28.0252    0.5960   -5.3233 C.3       5 UNK         0.0660 
     19 N          27.2139   -0.5933   -5.0350 N.am      5 UNK        -0.4015 
     20 C          26.5631   -1.3265   -5.9506 C.2       4 UNK         0.4946 
     21 O          26.5538   -1.0691   -7.1537 O.2       4 UNK        -0.5353 
     22 CA         25.7317   -2.5072   -5.4279 C.3       4 UNK         0.0277 
     23 CB         26.6224   -3.7182   -5.1025 C.3       4 UNK        -0.1981 
     24 N          24.9652   -2.1072   -4.2466 N.am      4 UNK        -0.4209 
     25 C          23.8121   -1.4225   -4.3026 C.2       3 UNK         0.4942 
     26 O          23.2049   -1.1939   -5.3486 O.2       3 UNK        -0.5208 
     27 CA         23.2486   -0.8664   -2.9819 C.3       3 UNK         0.0250 
     28 CB         22.1873   -1.8110   -2.3973 C.3       3 UNK        -0.1990 
     29 N          24.2878   -0.5992   -1.9825 N.am      3 UNK        -0.4232 
     30 C          25.1807    0.3978   -2.0887 C.2       2 UNK         0.4993 
     31 O          25.1801    1.2122   -3.0101 O.2       2 UNK        -0.5286 
     32 CA         26.2952    0.4781   -1.0300 C.3       2 UNK         0.0209 
     33 CB         25.8748    1.4034    0.1225 C.3       2 UNK        -0.1931 
     34 N          26.6930   -0.8250   -0.4897 N.am      2 UNK        -0.4546 
     35 C          27.1730   -1.8440   -1.2165 C.2       1 UNK         0.5154 
     36 O          27.3686   -1.7741   -2.4309 O.2       1 UNK        -0.5181 
     37 C          27.2400    1.7523   -5.9847 C.2       5 UNK         0.5014 
     38 O          27.8300    2.5618   -6.7006 O.2       5 UNK        -0.5248 
     39 N          25.9177    1.7957   -5.7740 N.am      6 UNK        -0.4434 
     40 CA         24.9861    2.6892   -6.4621 C.3       6 UNK         0.0363 
     41 CB         23.5960    2.5546   -5.8198 C.3       6 UNK        -0.1936 
     42 C          24.8985    2.4555   -7.9845 C.2       6 UNK         0.5081 
     43 O          24.5406    3.3902   -8.7023 O.2       6 UNK        -0.5248 
     44 N          25.2084    1.2383   -8.4600 N.am      7 UNK        -0.4718 
     45 CA         25.2108    0.9008   -9.8863 C.3       7 UNK         0.0273 
     46 CB         25.0256   -0.6144  -10.0704 C.3       7 UNK        -0.1935 
     47 C          26.4874    1.3840  -10.5927 C.2       7 UNK         0.5018 
     48 O          26.3951    1.9164  -11.6998 O.2       7 UNK        -0.5186 
     49 N          27.6458    1.2034   -9.9468 N.am      8 UNK        -0.4240 
     50 CA         28.9606    1.6229  -10.4271 C.3       8 UNK         0.0235 
     51 CB         29.4547    0.6877  -11.5488 C.3       8 UNK        -0.2000 
     52 C          29.9367    1.6002   -9.2486 C.2       8 UNK         0.4941 
     53 O          29.8461    0.7022   -8.4129 O.2       8 UNK        -0.5273 
     54 N          30.8683    2.5610   -9.2170 N.am      9 UNK        -0.4262 
     55 CA         31.8804    2.6773   -8.1619 C.3       9 UNK         0.0264 
     56 CB         32.2829    4.1536   -8.0117 C.3       9 UNK        -0.1955 
     57 C          33.1265    1.8083   -8.4076 C.2       9 UNK         0.5031 
     58 O          33.8501    1.5191   -7.4538 O.2       9 UNK        -0.5390 
     59 N          33.3737    1.4233   -9.6696 N.am      10 UNK        -0.4204 
     60 CA         34.5782    0.7161  -10.1286 C.3       10 UNK         0.0237 
     61 CB         34.5196    0.5601  -11.6571 C.3       10 UNK        -0.1985 
     62 C          34.8216   -0.6494   -9.4600 C.2       10 UNK         0.4970 
     63 O          35.9760   -1.0473   -9.2996 O.2       10 UNK        -0.4914 
     64 N          33.7357   -1.3275   -9.0786 N.am      11 UNK        -0.4285 
     65 CA         33.7270   -2.5709   -8.2954 C.3       11 UNK         0.1007 
     66 C          34.0303   -2.3898   -6.7780 C.2       11 UNK         0.5703 
     67 N          34.1763   -1.1769   -6.2559 N.am      11 UNK        -0.7361 
     68 O          34.1801   -3.3792   -6.0650 O.2       11 UNK        -0.4986 
     69 C69        32.4471   -3.4140   -8.5708 C.3       12 UNK        -0.0947 
     70 S70        30.9152   -2.4281   -8.7099 S.3       12 UNK        -0.2240 
     71 C71        29.8757   -3.0787   -7.3666 C.3       12 UNK         0.0194 
     72 H72        24.7196   -6.0923   -1.2120 H         1 UNK         0.0906 
     73 H73        23.3315   -5.3178   -0.4499 H         1 UNK         0.0906 
     74 H74        23.7413   -4.9421   -2.1269 H         1 UNK         0.0906 
     75 H75        26.7184   -4.9941   -1.2450 H         1 UNK         0.3140 
     76 H76        27.2696   -2.9628    0.5964 H         1 UNK         0.1085 
     77 H77        29.1015   -4.2921    0.2590 H         1 UNK         0.0836 
     78 H78        29.5606   -2.9383   -0.7197 H         1 UNK         0.0836 
     79 H79        31.1552   -5.4351   -3.0466 H         1 UNK         0.0731 
     80 H80        31.3591   -4.2702   -1.7673 H         1 UNK         0.0731 
     81 H81        30.0367   -4.7317   -5.2246 H         1 UNK         0.1312 
     82 H82        30.8030   -0.6753   -6.3849 H         1 UNK         0.1406 
     83 H83        31.3896   -1.8983   -2.3157 H         1 UNK         0.1631 
     84 H84        32.5847    0.4503   -4.2977 H         1 UNK         0.0717 
     85 H85        31.6319    0.3825   -2.8363 H         1 UNK         0.0717 
     86 H86        28.9308    0.2565   -3.3537 H         1 UNK         0.0934 
     87 H87        28.3165    1.8680   -3.5476 H         1 UNK         0.0934 
     88 H88        28.7262    0.2635   -6.0878 H         1 UNK         0.0739 
     89 H89        27.2170   -0.9230   -4.0723 H         1 UNK         0.3093 
     90 H90        25.0382   -2.8066   -6.2170 H         1 UNK         0.0818 
     91 H91        27.1429   -4.0652   -5.9957 H         1 UNK         0.0819 
     92 H92        27.3847   -3.4838   -4.3595 H         1 UNK         0.0819 
     93 H93        26.0344   -4.5543   -4.7244 H         1 UNK         0.0819 
     94 H94        25.4316   -2.2080   -3.3543 H         1 UNK         0.3041 
     95 H95        22.7583    0.0819   -3.2139 H         1 UNK         0.0784 
     96 H96        21.3678   -1.9577   -3.1023 H         1 UNK         0.0793 
     97 H97        22.5982   -2.7935   -2.1702 H         1 UNK         0.0793 
     98 H98        21.7573   -1.4071   -1.4805 H         1 UNK         0.0793 
     99 H99        24.3660   -1.2562   -1.2107 H         1 UNK         0.3024 
    100 H100       27.1704    0.9136   -1.5156 H         1 UNK         0.1171 
    101 H101       26.6888    1.5486    0.8330 H         1 UNK         0.0786 
    102 H102       25.5946    2.3893   -0.2516 H         1 UNK         0.0786 
    103 H103       25.0178    1.0060    0.6679 H         1 UNK         0.0786 
    104 H104       26.5107   -0.9763    0.4924 H         1 UNK         0.2977 
    105 H105       25.5247    1.1806   -5.0704 H         1 UNK         0.3127 
    106 H106       25.3367    3.7119   -6.3090 H         1 UNK         0.0770 
    107 H107       23.2012    1.5434   -5.9243 H         1 UNK         0.0814 
    108 H108       22.8819    3.2339   -6.2872 H         1 UNK         0.0814 
    109 H109       23.6238    2.7960   -4.7570 H         1 UNK         0.0814 
    110 H110       25.5333    0.5173   -7.8216 H         1 UNK         0.2983 
    111 H111       24.3608    1.3961  -10.3615 H         1 UNK         0.0947 
    112 H112       25.8729   -1.1796   -9.6813 H         1 UNK         0.0806 
    113 H113       24.9286   -0.8662  -11.1272 H         1 UNK         0.0806 
    114 H114       24.1260   -0.9696   -9.5676 H         1 UNK         0.0806 
    115 H115       27.6501    0.7770   -9.0269 H         1 UNK         0.3000 
    116 H116       28.8838    2.6440  -10.8067 H         1 UNK         0.0850 
    117 H117       30.4462    0.9803  -11.8961 H         1 UNK         0.0810 
    118 H118       28.7922    0.7112  -12.4139 H         1 UNK         0.0810 
    119 H119       29.5206   -0.3460  -11.2058 H         1 UNK         0.0810 
    120 H120       30.8718    3.2714   -9.9356 H         1 UNK         0.3040 
    121 H121       31.4426    2.3534   -7.2162 H         1 UNK         0.0766 
    122 H122       31.4226    4.7742   -7.7602 H         1 UNK         0.0812 
    123 H123       32.7294    4.5485   -8.9250 H         1 UNK         0.0812 
    124 H124       33.0135    4.2780   -7.2110 H         1 UNK         0.0812 
    125 H125       32.7163    1.7026  -10.3820 H         1 UNK         0.3205 
    126 H126       35.4346    1.3477   -9.8833 H         1 UNK         0.0754 
    127 H127       35.4124    0.0583  -12.0335 H         1 UNK         0.0769 
    128 H128       34.4628    1.5286  -12.1545 H         1 UNK         0.0769 
    129 H129       33.6576   -0.0309  -11.9700 H         1 UNK         0.0769 
    130 H130       32.8260   -0.9196   -9.2384 H         1 UNK         0.2981 
    131 H131       34.5635   -3.1713   -8.6579 H         1 UNK         0.0541 
    132 H132       34.3877   -1.0969   -5.2755 H         1 UNK         0.3459 
    133 H133       34.0691   -0.3384   -6.8169 H         1 UNK         0.3459 
    134 H134       32.5674   -3.9313   -9.5235 H         1 UNK         0.0612 
    135 H135       32.3174   -4.2051   -7.8300 H         1 UNK         0.0612 
    136 H136       28.8753   -2.6621   -7.4849 H         1 UNK         0.0624 
    137 H137       29.7768   -4.1575   -7.4962 H         1 UNK         0.0624 
@<TRIPOS>BOND
     1    1    2 1    
     2    1   72 1    
     3    1   73 1    
     4    1   74 1    
     5    2    3 2    
     6    2    4 am   BACKBONE|DICT|INTERRES
     7    4    5 1    
     8    4   75 1    
     9    5    6 1    
    10    5   35 1    
    11    5   76 1    
    12    6    7 1    
    13    6   77 1    
    14    6   78 1    
    15    7    8 1    
    16    8    9 1    
    17    8   79 1    
    18    8   80 1    
    19    9   10 ar   
    20    9   14 ar   
    21   10   11 ar   
    22   10   81 1    
    23   11   12 ar   
    24   11   71 1    
    25   12   13 ar   
    26   12   82 1    
    27   13   14 ar   
    28   13   15 1    
    29   14   83 1    
    30   15   16 1    
    31   15   84 1    
    32   15   85 1    
    33   16   17 1    
    34   17   18 1    
    35   17   86 1    
    36   17   87 1    
    37   18   19 1    
    38   18   37 1    
    39   18   88 1    
    40   19   20 am   BACKBONE|DICT|INTERRES
    41   19   89 1    
    42   20   21 2    
    43   20   22 1    
    44   22   23 1    
    45   22   24 1    
    46   22   90 1    
    47   23   91 1    
    48   23   92 1    
    49   23   93 1    
    50   24   25 am   BACKBONE|DICT|INTERRES
    51   24   94 1    
    52   25   26 2    
    53   25   27 1    
    54   27   28 1    
    55   27   29 1    
    56   27   95 1    
    57   28   96 1    
    58   28   97 1    
    59   28   98 1    
    60   29   30 am   BACKBONE|DICT|INTERRES
    61   29   99 1    
    62   30   31 2    
    63   30   32 1    
    64   32   33 1    
    65   32   34 1    
    66   32  100 1    
    67   33  101 1    
    68   33  102 1    
    69   33  103 1    
    70   34   35 am   BACKBONE|DICT|INTERRES
    71   34  104 1    
    72   35   36 2    
    73   37   38 2    
    74   37   39 am   BACKBONE|DICT|INTERRES
    75   39   40 1    
    76   39  105 1    
    77   40   41 1    
    78   40   42 1    
    79   40  106 1    
    80   41  107 1    
    81   41  108 1    
    82   41  109 1    
    83   42   43 2    
    84   42   44 am   BACKBONE|DICT|INTERRES
    85   44   45 1    
    86   44  110 1    
    87   45   46 1    
    88   45   47 1    
    89   45  111 1    
    90   46  112 1    
    91   46  113 1    
    92   46  114 1    
    93   47   48 2    
    94   47   49 am   BACKBONE|DICT|INTERRES
    95   49   50 1    
    96   49  115 1    
    97   50   51 1    
    98   50   52 1    
    99   50  116 1    
   100   51  117 1    
   101   51  118 1    
   102   51  119 1    
   103   52   53 2    
   104   52   54 am   BACKBONE|DICT|INTERRES
   105   54   55 1    
   106   54  120 1    
   107   55   56 1    
   108   55   57 1    
   109   55  121 1    
   110   56  122 1    
   111   56  123 1    
   112   56  124 1    
   113   57   58 2    
   114   57   59 am   BACKBONE|DICT|INTERRES
   115   59   60 1    
   116   59  125 1    
   117   60   61 1    
   118   60   62 1    
   119   60  126 1    
   120   61  127 1    
   121   61  128 1    
   122   61  129 1    
   123   62   63 2    
   124   62   64 am   BACKBONE|DICT|INTERRES
   125   64   65 1    
   126   64  130 1    
   127   65   66 1    
   128   65   69 1    
   129   65  131 1    
   130   66   67 am   BACKBONE|DICT|INTERRES
   131   66   68 2    
   132   67  132 1    
   133   67  133 1    
   134   69   70 1    
   135   69  134 1    
   136   69  135 1    
   137   70   71 1    
   138   71  136 1    
   139   71  137 1    
@<TRIPOS>SUBSTRUCTURE
     1 UNK         1 GROUP             0       ****    0 ROOT    
