@<TRIPOS>MOLECULE
3R137
137   139    1
SMALL
USER_CHARGES


@<TRIPOS>ATOM
      1 CA         25.1584   -5.5454    1.5413 C.3       0 UNK        -0.2020 
      2 C          25.9479   -4.2874    1.2123 C.2       0 UNK         0.4855 
      3 O          25.9391   -3.3375    1.9955 O.2       0 UNK        -0.5197 
      4 N          26.6333   -4.2761    0.0616 N.am      1 UNK        -0.4892 
      5 CA         27.4510   -3.1549   -0.4241 C.3       1 UNK         0.0835 
      6 C6         28.3208   -3.5622   -1.6354 C.3       12 UNK        -0.0855 
      7 S7         29.4161   -4.9917   -1.3043 S.3       12 UNK        -0.2931 
      8 C8         31.0931   -4.2639   -1.3561 C.3       12 UNK         0.0378 
      9 C9         31.3163   -3.3748   -2.5738 C.ar      12 UNK        -0.0802 
     10 C10        31.7459   -2.0561   -2.4042 C.ar      12 UNK        -0.0944 
     11 C11        31.8608   -1.1893   -3.4945 C.ar      12 UNK        -0.0787 
     12 C12        31.5219   -1.6640   -4.7693 C.ar      12 UNK        -0.0862 
     13 C13        31.1093   -2.9872   -4.9600 C.ar      12 UNK        -0.0733 
     14 C14        31.0368   -3.8451   -3.8593 C.ar      12 UNK        -0.0832 
     15 C15        30.7491   -3.4728   -6.3610 C.3       12 UNK         0.0240 
     16 S16        29.2442   -4.5079   -6.4476 S.3       12 UNK        -0.2522 
     17 C17        27.9539   -3.4509   -5.7056 C.3       12 UNK        -0.0967 
     18 CA         27.3210   -2.4606   -6.7202 C.3       5 UNK         0.0660 
     19 N          25.9029   -2.2289   -6.4555 N.am      5 UNK        -0.4015 
     20 C          24.9190   -2.3840   -7.3519 C.2       4 UNK         0.4946 
     21 O          25.0556   -2.9654   -8.4285 O.2       4 UNK        -0.5353 
     22 CA         23.5443   -1.7678   -7.0167 C.3       4 UNK         0.0277 
     23 CB         22.5639   -2.8612   -6.5615 C.3       4 UNK        -0.1981 
     24 N          23.5795   -0.7076   -6.0033 N.am      4 UNK        -0.4209 
     25 C          24.3040    0.4199   -6.0643 C.2       3 UNK         0.4942 
     26 O          24.9886    0.7470   -7.0341 O.2       3 UNK        -0.5208 
     27 CA         24.3519    1.2859   -4.7918 C.3       3 UNK         0.0250 
     28 CB         23.2973    2.4007   -4.8663 C.3       3 UNK        -0.1990 
     29 N          24.1840    0.5408   -3.5355 N.am      3 UNK        -0.4232 
     30 C          24.8990   -0.5229   -3.1366 C.2       2 UNK         0.4993 
     31 O          25.8089   -1.0288   -3.8042 O.2       2 UNK        -0.5286 
     32 CA         24.4551   -1.1594   -1.8069 C.3       2 UNK         0.0209 
     33 CB         23.0757   -1.8254   -1.9616 C.3       2 UNK        -0.1931 
     34 N          25.3962   -2.1699   -1.3254 N.am      2 UNK        -0.4546 
     35 C          26.6014   -1.9206   -0.7965 C.2       1 UNK         0.5154 
     36 O          27.0444   -0.7881   -0.5980 O.2       1 UNK        -0.5181 
     37 C          28.0515   -1.1062   -6.7109 C.2       5 UNK         0.5014 
     38 O          28.7275   -0.7737   -7.6856 O.2       5 UNK        -0.5248 
     39 N          27.9148   -0.3566   -5.6059 N.am      6 UNK        -0.4434 
     40 CA         28.7448    0.8046   -5.2814 C.3       6 UNK         0.0363 
     41 CB         28.4767    1.2446   -3.8339 C.3       6 UNK        -0.1936 
     42 C          28.6347    1.9884   -6.2533 C.2       6 UNK         0.5081 
     43 O          29.6543    2.6038   -6.5604 O.2       6 UNK        -0.5248 
     44 N          27.4222    2.2858   -6.7335 N.am      7 UNK        -0.4718 
     45 CA         27.1862    3.3399   -7.7223 C.3       7 UNK         0.0273 
     46 CB         25.8166    3.9932   -7.4742 C.3       7 UNK        -0.1935 
     47 C          27.2721    2.7823   -9.1490 C.2       7 UNK         0.5018 
     48 O          27.7609    3.4791  -10.0379 O.2       7 UNK        -0.5186 
     49 N          26.7990    1.5420   -9.3381 N.am      8 UNK        -0.4240 
     50 CA         26.7533    0.8474  -10.6249 C.3       8 UNK         0.0235 
     51 CB         25.9473   -0.4509  -10.4747 C.3       8 UNK        -0.2000 
     52 C          28.1416    0.5564  -11.2177 C.2       8 UNK         0.4941 
     53 O          28.3704    0.8660  -12.3878 O.2       8 UNK        -0.5273 
     54 N          29.0352   -0.0362  -10.4133 N.am      9 UNK        -0.4262 
     55 CA         30.3875   -0.4153  -10.8349 C.3       9 UNK         0.0264 
     56 CB         30.7753   -1.7350  -10.1480 C.3       9 UNK        -0.1955 
     57 C          31.4354    0.6664  -10.5268 C.2       9 UNK         0.5031 
     58 O          32.5366    0.5914  -11.0720 O.2       9 UNK        -0.5390 
     59 N          31.0961    1.6221   -9.6466 N.am      10 UNK        -0.4204 
     60 CA         31.9542    2.6940   -9.1177 C.3       10 UNK         0.0237 
     61 CB         32.4213    3.6462  -10.2403 C.3       10 UNK        -0.1985 
     62 C          33.1191    2.1878   -8.2368 C.2       10 UNK         0.4970 
     63 O          34.0932    2.9184   -8.0440 O.2       10 UNK        -0.4914 
     64 N          32.9827    0.9677   -7.6977 N.am      11 UNK        -0.4285 
     65 CA         33.9324    0.2853   -6.8013 C.3       11 UNK         0.1007 
     66 C          35.3128   -0.0101   -7.4666 C.2       11 UNK         0.5703 
     67 N          36.3667   -0.2343   -6.6915 N.am      11 UNK        -0.7361 
     68 O          35.4317   -0.0999   -8.6871 O.2       11 UNK        -0.4986 
     69 C69        34.0382    0.9595   -5.3971 C.3       12 UNK        -0.0947 
     70 S70        32.4258    1.3759   -4.6437 S.3       12 UNK        -0.2240 
     71 C71        32.3203    0.2451   -3.2137 C.3       12 UNK         0.0194 
     72 H72        24.0999   -5.3077    1.6440 H         1 UNK         0.0906 
     73 H73        25.2616   -6.3066    0.7682 H         1 UNK         0.0906 
     74 H74        25.5052   -5.9702    2.4829 H         1 UNK         0.0906 
     75 H75        26.6383   -5.1003   -0.5232 H         1 UNK         0.3140 
     76 H76        28.1163   -2.8526    0.3879 H         1 UNK         0.1085 
     77 H77        28.9066   -2.7041   -1.9662 H         1 UNK         0.0836 
     78 H78        27.6885   -3.8275   -2.4849 H         1 UNK         0.0836 
     79 H79        31.2524   -3.7033   -0.4336 H         1 UNK         0.0731 
     80 H80        31.8304   -5.0677   -1.3606 H         1 UNK         0.0731 
     81 H81        31.9697   -1.6908   -1.4109 H         1 UNK         0.1312 
     82 H82        31.5629   -1.0073   -5.6235 H         1 UNK         0.1406 
     83 H83        30.7096   -4.8673   -3.9934 H         1 UNK         0.1631 
     84 H84        31.5882   -4.0478   -6.7542 H         1 UNK         0.0717 
     85 H85        30.6191   -2.6264   -7.0332 H         1 UNK         0.0717 
     86 H86        27.1877   -4.1372   -5.3410 H         1 UNK         0.0934 
     87 H87        28.3338   -2.9570   -4.8092 H         1 UNK         0.0934 
     88 H88        27.4350   -2.8734   -7.7250 H         1 UNK         0.0739 
     89 H89        25.6874   -1.7667   -5.5769 H         1 UNK         0.3093 
     90 H90        23.1626   -1.3223   -7.9377 H         1 UNK         0.0818 
     91 H91        21.5600   -2.4615   -6.4175 H         1 UNK         0.0819 
     92 H92        22.4894   -3.6541   -7.3073 H         1 UNK         0.0819 
     93 H93        22.8808   -3.3236   -5.6257 H         1 UNK         0.0819 
     94 H94        23.0527   -0.8787   -5.1598 H         1 UNK         0.3041 
     95 H95        25.3356    1.7553   -4.7579 H         1 UNK         0.0784 
     96 H96        23.3993    2.9791   -5.7854 H         1 UNK         0.0793 
     97 H97        22.2830    1.9999   -4.8469 H         1 UNK         0.0793 
     98 H98        23.3988    3.0998   -4.0360 H         1 UNK         0.0793 
     99 H99        23.4518    0.8751   -2.9248 H         1 UNK         0.3024 
    100 H100       24.3898   -0.3674   -1.0570 H         1 UNK         0.1171 
    101 H101       22.3102   -1.1029   -2.2472 H         1 UNK         0.0786 
    102 H102       22.7484   -2.2778   -1.0250 H         1 UNK         0.0786 
    103 H103       23.0873   -2.6070   -2.7228 H         1 UNK         0.0786 
    104 H104       25.1332   -3.1348   -1.4593 H         1 UNK         0.2977 
    105 H105       27.2887   -0.6734   -4.8686 H         1 UNK         0.3127 
    106 H106       29.7778    0.4655   -5.3326 H         1 UNK         0.0770 
    107 H107       27.4454    1.5644   -3.6885 H         1 UNK         0.0814 
    108 H108       29.1215    2.0797   -3.5564 H         1 UNK         0.0814 
    109 H109       28.6781    0.4356   -3.1309 H         1 UNK         0.0814 
    110 H110       26.6360    1.6846   -6.5133 H         1 UNK         0.2983 
    111 H111       27.9460    4.1186   -7.6213 H         1 UNK         0.0947 
    112 H112       25.6706    4.8456   -8.1389 H         1 UNK         0.0806 
    113 H113       25.7303    4.3610   -6.4518 H         1 UNK         0.0806 
    114 H114       24.9940    3.3015   -7.6548 H         1 UNK         0.0806 
    115 H115       26.3690    1.0730   -8.5484 H         1 UNK         0.3000 
    116 H116       26.2230    1.4951  -11.3264 H         1 UNK         0.0850 
    117 H117       25.8392   -0.9581  -11.4342 H         1 UNK         0.0810 
    118 H118       24.9441   -0.2580  -10.0936 H         1 UNK         0.0810 
    119 H119       26.4364   -1.1467   -9.7927 H         1 UNK         0.0810 
    120 H120       28.7766   -0.2684   -9.4545 H         1 UNK         0.3040 
    121 H121       30.4011   -0.5865  -11.9136 H         1 UNK         0.0766 
    122 H122       31.7342   -2.1002  -10.5185 H         1 UNK         0.0812 
    123 H123       30.0367   -2.5151  -10.3333 H         1 UNK         0.0812 
    124 H124       30.8713   -1.6113   -9.0705 H         1 UNK         0.0812 
    125 H125       30.1629    1.5859   -9.2600 H         1 UNK         0.3205 
    126 H126       31.3194    3.2795   -8.4524 H         1 UNK         0.0754 
    127 H127       32.9043    4.5318   -9.8258 H         1 UNK         0.0769 
    128 H128       31.5806    3.9903  -10.8429 H         1 UNK         0.0769 
    129 H129       33.1404    3.1686  -10.9062 H         1 UNK         0.0769 
    130 H130       32.1528    0.4470   -7.9324 H         1 UNK         0.2981 
    131 H131       33.5103   -0.7070   -6.6529 H         1 UNK         0.0541 
    132 H132       36.2964   -0.1892   -5.6875 H         1 UNK         0.3459 
    133 H133       37.2527   -0.4472   -7.1227 H         1 UNK         0.3459 
    134 H134       34.6118    1.8851   -5.4689 H         1 UNK         0.0612 
    135 H135       34.5855    0.3161   -4.7073 H         1 UNK         0.0612 
    136 H136       31.6162    0.6882   -2.5079 H         1 UNK         0.0624 
    137 H137       33.2855    0.2239   -2.7058 H         1 UNK         0.0624 
@<TRIPOS>BOND
     1    1    2 1    
     2    1   72 1    
     3    1   73 1    
     4    1   74 1    
     5    2    3 2    
     6    2    4 am   BACKBONE|DICT|INTERRES
     7    4    5 1    
     8    4   75 1    
     9    5    6 1    
    10    5   35 1    
    11    5   76 1    
    12    6    7 1    
    13    6   77 1    
    14    6   78 1    
    15    7    8 1    
    16    8    9 1    
    17    8   79 1    
    18    8   80 1    
    19    9   10 ar   
    20    9   14 ar   
    21   10   11 ar   
    22   10   81 1    
    23   11   12 ar   
    24   11   71 1    
    25   12   13 ar   
    26   12   82 1    
    27   13   14 ar   
    28   13   15 1    
    29   14   83 1    
    30   15   16 1    
    31   15   84 1    
    32   15   85 1    
    33   16   17 1    
    34   17   18 1    
    35   17   86 1    
    36   17   87 1    
    37   18   19 1    
    38   18   37 1    
    39   18   88 1    
    40   19   20 am   BACKBONE|DICT|INTERRES
    41   19   89 1    
    42   20   21 2    
    43   20   22 1    
    44   22   23 1    
    45   22   24 1    
    46   22   90 1    
    47   23   91 1    
    48   23   92 1    
    49   23   93 1    
    50   24   25 am   BACKBONE|DICT|INTERRES
    51   24   94 1    
    52   25   26 2    
    53   25   27 1    
    54   27   28 1    
    55   27   29 1    
    56   27   95 1    
    57   28   96 1    
    58   28   97 1    
    59   28   98 1    
    60   29   30 am   BACKBONE|DICT|INTERRES
    61   29   99 1    
    62   30   31 2    
    63   30   32 1    
    64   32   33 1    
    65   32   34 1    
    66   32  100 1    
    67   33  101 1    
    68   33  102 1    
    69   33  103 1    
    70   34   35 am   BACKBONE|DICT|INTERRES
    71   34  104 1    
    72   35   36 2    
    73   37   38 2    
    74   37   39 am   BACKBONE|DICT|INTERRES
    75   39   40 1    
    76   39  105 1    
    77   40   41 1    
    78   40   42 1    
    79   40  106 1    
    80   41  107 1    
    81   41  108 1    
    82   41  109 1    
    83   42   43 2    
    84   42   44 am   BACKBONE|DICT|INTERRES
    85   44   45 1    
    86   44  110 1    
    87   45   46 1    
    88   45   47 1    
    89   45  111 1    
    90   46  112 1    
    91   46  113 1    
    92   46  114 1    
    93   47   48 2    
    94   47   49 am   BACKBONE|DICT|INTERRES
    95   49   50 1    
    96   49  115 1    
    97   50   51 1    
    98   50   52 1    
    99   50  116 1    
   100   51  117 1    
   101   51  118 1    
   102   51  119 1    
   103   52   53 2    
   104   52   54 am   BACKBONE|DICT|INTERRES
   105   54   55 1    
   106   54  120 1    
   107   55   56 1    
   108   55   57 1    
   109   55  121 1    
   110   56  122 1    
   111   56  123 1    
   112   56  124 1    
   113   57   58 2    
   114   57   59 am   BACKBONE|DICT|INTERRES
   115   59   60 1    
   116   59  125 1    
   117   60   61 1    
   118   60   62 1    
   119   60  126 1    
   120   61  127 1    
   121   61  128 1    
   122   61  129 1    
   123   62   63 2    
   124   62   64 am   BACKBONE|DICT|INTERRES
   125   64   65 1    
   126   64  130 1    
   127   65   66 1    
   128   65   69 1    
   129   65  131 1    
   130   66   67 am   BACKBONE|DICT|INTERRES
   131   66   68 2    
   132   67  132 1    
   133   67  133 1    
   134   69   70 1    
   135   69  134 1    
   136   69  135 1    
   137   70   71 1    
   138   71  136 1    
   139   71  137 1    
@<TRIPOS>SUBSTRUCTURE
     1 UNK         1 GROUP             0       ****    0 ROOT    
