@<TRIPOS>MOLECULE
3R137
137   139    1
SMALL
USER_CHARGES


@<TRIPOS>ATOM
      1 CA         32.6484    0.4457   -1.3898 C.3       0 UNK        -0.2020 
      2 C          31.6142    0.1933   -2.4744 C.2       0 UNK         0.4855 
      3 O          31.6300    0.8650   -3.5064 O.2       0 UNK        -0.5197 
      4 N          30.7256   -0.7805   -2.2525 N.am      1 UNK        -0.4892 
      5 CA         29.6086   -1.1230   -3.1392 C.3       1 UNK         0.0835 
      6 C6         28.9468   -2.4724   -2.7427 C.3       12 UNK        -0.0855 
      7 S7         30.1391   -3.8278   -2.4562 S.3       12 UNK        -0.2931 
      8 C8         29.4722   -5.1725   -3.4942 C.3       12 UNK         0.0378 
      9 C9         29.5719   -4.8956   -4.9904 C.ar      12 UNK        -0.0802 
     10 C10        30.7332   -4.3443   -5.5413 C.ar      12 UNK        -0.0944 
     11 C11        30.8228   -4.0849   -6.9105 C.ar      12 UNK        -0.0787 
     12 C12        29.7480   -4.4204   -7.7401 C.ar      12 UNK        -0.0862 
     13 C13        28.5875   -4.9950   -7.2112 C.ar      12 UNK        -0.0733 
     14 C14        28.5070   -5.2281   -5.8336 C.ar      12 UNK        -0.0832 
     15 C15        27.4472   -5.3991   -8.1423 C.3       12 UNK         0.0240 
     16 S16        25.8071   -4.8278   -7.5865 S.3       12 UNK        -0.2522 
     17 C17        25.9868   -3.0225   -7.7447 C.3       12 UNK        -0.0967 
     18 CA         24.8090   -2.2401   -7.1078 C.3       5 UNK         0.0660 
     19 N          24.7825   -2.3809   -5.6558 N.am      5 UNK        -0.4015 
     20 C          23.9577   -3.1742   -4.9627 C.2       4 UNK         0.4946 
     21 O          23.0576   -3.8485   -5.4653 O.2       4 UNK        -0.5353 
     22 CA         24.1850   -3.2388   -3.4439 C.3       4 UNK         0.0277 
     23 CB         25.2697   -4.2780   -3.1118 C.3       4 UNK        -0.1981 
     24 N          24.5565   -1.9419   -2.8731 N.am      4 UNK        -0.4209 
     25 C          23.6900   -0.9445   -2.6442 C.2       3 UNK         0.4942 
     26 O          22.4821   -1.0145   -2.8732 O.2       3 UNK        -0.5208 
     27 CA         24.2752    0.3499   -2.0598 C.3       3 UNK         0.0250 
     28 CB         24.4847    0.2191   -0.5423 C.3       3 UNK        -0.1990 
     29 N          25.5382    0.7247   -2.6972 N.am      3 UNK        -0.4232 
     30 C          25.6555    1.2225   -3.9335 C.2       2 UNK         0.4993 
     31 O          24.6910    1.4463   -4.6621 O.2       2 UNK        -0.5286 
     32 CA         27.0751    1.5419   -4.4399 C.3       2 UNK         0.0209 
     33 CB         27.5626    2.8812   -3.8488 C.3       2 UNK        -0.1931 
     34 N          28.0674    0.4701   -4.2383 N.am      2 UNK        -0.4546 
     35 C          28.5579    0.0042   -3.0808 C.2       1 UNK         0.5154 
     36 O          28.1858    0.4034   -1.9733 O.2       1 UNK        -0.5181 
     37 C          24.9328   -0.7391   -7.3927 C.2       5 UNK         0.5014 
     38 O          26.0249   -0.1913   -7.2427 O.2       5 UNK        -0.5248 
     39 N          23.8275   -0.0959   -7.7940 N.am      6 UNK        -0.4434 
     40 CA         23.7438    1.3513   -8.0424 C.3       6 UNK         0.0363 
     41 CB         22.2915    1.7246   -8.3814 C.3       6 UNK        -0.1936 
     42 C          24.6992    1.8723   -9.1323 C.2       6 UNK         0.5081 
     43 O          25.1141    3.0299   -9.0736 O.2       6 UNK        -0.5248 
     44 N          25.0342    1.0097  -10.0992 N.am      7 UNK        -0.4718 
     45 CA         25.9621    1.2996  -11.1922 C.3       7 UNK         0.0273 
     46 CB         25.5787    0.4265  -12.3998 C.3       7 UNK        -0.1935 
     47 C          27.4430    1.0843  -10.8237 C.2       7 UNK         0.5018 
     48 O          28.3004    1.4337  -11.6367 O.2       7 UNK        -0.5186 
     49 N          27.7341    0.4987   -9.6526 N.am      8 UNK        -0.4240 
     50 CA         29.0808    0.1096   -9.2390 C.3       8 UNK         0.0235 
     51 CB         29.2095   -1.4188   -9.3181 C.3       8 UNK        -0.2000 
     52 C          29.3652    0.6616   -7.8375 C.2       8 UNK         0.4941 
     53 O          29.1661   -0.0291   -6.8351 O.2       8 UNK        -0.5273 
     54 N          29.8161    1.9185   -7.8077 N.am      9 UNK        -0.4262 
     55 CA         30.3165    2.6051   -6.6208 C.3       9 UNK         0.0264 
     56 CB         29.7163    4.0211   -6.5851 C.3       9 UNK        -0.1955 
     57 C          31.8489    2.6767   -6.6801 C.2       9 UNK         0.5031 
     58 O          32.4227    2.6232   -7.7717 O.2       9 UNK        -0.5390 
     59 N          32.4690    2.8320   -5.5029 N.am      10 UNK        -0.4204 
     60 CA         33.9160    2.8823   -5.2565 C.3       10 UNK         0.0237 
     61 CB         34.5729    4.0905   -5.9598 C.3       10 UNK        -0.1985 
     62 C          34.6133    1.5413   -5.5590 C.2       10 UNK         0.4970 
     63 O          35.7272    1.5255   -6.0860 O.2       10 UNK        -0.4914 
     64 N          33.9458    0.4405   -5.1938 N.am      11 UNK        -0.4285 
     65 CA         34.4464   -0.9386   -5.3089 C.3       11 UNK         0.1007 
     66 C          35.4688   -1.3456   -4.2055 C.2       11 UNK         0.5703 
     67 N          35.7764   -0.5015   -3.2272 N.am      11 UNK        -0.7361 
     68 O          36.0087   -2.4485   -4.2462 O.2       11 UNK        -0.4986 
     69 C69        33.2739   -1.9504   -5.4021 C.3       12 UNK        -0.0947 
     70 S70        32.3180   -1.7384   -6.9425 S.3       12 UNK        -0.2240 
     71 C71        32.0847   -3.4612   -7.4951 C.3       12 UNK         0.0194 
     72 H72        32.2495    0.2197   -0.4015 H         1 UNK         0.0906 
     73 H73        33.5268   -0.1757   -1.5545 H         1 UNK         0.0906 
     74 H74        32.9591    1.4897   -1.3947 H         1 UNK         0.0906 
     75 H75        30.7620   -1.3047   -1.3901 H         1 UNK         0.3140 
     76 H76        29.9938   -1.2041   -4.1595 H         1 UNK         0.1085 
     77 H77        28.2404   -2.7708   -3.5186 H         1 UNK         0.0836 
     78 H78        28.3636   -2.3678   -1.8251 H         1 UNK         0.0836 
     79 H79        30.0260   -6.0865   -3.2763 H         1 UNK         0.0731 
     80 H80        28.4384   -5.3612   -3.2004 H         1 UNK         0.0731 
     81 H81        31.5674   -4.1056   -4.8982 H         1 UNK         0.1312 
     82 H82        29.8193   -4.2431   -8.8042 H         1 UNK         0.1406 
     83 H83        27.6138   -5.6785   -5.4220 H         1 UNK         0.1631 
     84 H84        27.4296   -6.4872   -8.2150 H         1 UNK         0.0717 
     85 H85        27.6198   -5.0265   -9.1533 H         1 UNK         0.0717 
     86 H86        26.0832   -2.7850   -8.8060 H         1 UNK         0.0934 
     87 H87        26.9256   -2.7291   -7.2714 H         1 UNK         0.0934 
     88 H88        23.8736   -2.5976   -7.5440 H         1 UNK         0.0739 
     89 H89        25.4536   -1.8138   -5.1599 H         1 UNK         0.3093 
     90 H90        23.2513   -3.5655   -2.9802 H         1 UNK         0.0818 
     91 H91        26.2240   -4.0334   -3.5776 H         1 UNK         0.0819 
     92 H92        25.4288   -4.3606   -2.0365 H         1 UNK         0.0819 
     93 H93        24.9808   -5.2664   -3.4720 H         1 UNK         0.0819 
     94 H94        25.5243   -1.8028   -2.6258 H         1 UNK         0.3041 
     95 H95        23.5532    1.1506   -2.2351 H         1 UNK         0.0784 
     96 H96        23.5544   -0.0535   -0.0419 H         1 UNK         0.0793 
     97 H97        25.2241   -0.5445   -0.2974 H         1 UNK         0.0793 
     98 H98        24.8210    1.1607   -0.1077 H         1 UNK         0.0793 
     99 H99        26.3988    0.5988   -2.1665 H         1 UNK         0.3024 
    100 H100       27.0023    1.6658   -5.5225 H         1 UNK         0.1171 
    101 H101       28.5840    3.1074   -4.1475 H         1 UNK         0.0786 
    102 H102       27.5356    2.8818   -2.7586 H         1 UNK         0.0786 
    103 H103       26.9324    3.7047   -4.1868 H         1 UNK         0.0786 
    104 H104       28.4386    0.0892   -5.1098 H         1 UNK         0.2977 
    105 H105       22.9667   -0.6171   -7.8837 H         1 UNK         0.3127 
    106 H106       24.0158    1.8605   -7.1170 H         1 UNK         0.0770 
    107 H107       21.9447    1.2211   -9.2846 H         1 UNK         0.0814 
    108 H108       22.1939    2.7982   -8.5491 H         1 UNK         0.0814 
    109 H109       21.6142    1.4646   -7.5677 H         1 UNK         0.0814 
    110 H110       24.6411    0.0803  -10.0677 H         1 UNK         0.2983 
    111 H111       25.8535    2.3469  -11.4836 H         1 UNK         0.0947 
    112 H112       26.2156    0.6432  -13.2587 H         1 UNK         0.0806 
    113 H113       24.5496    0.6082  -12.7107 H         1 UNK         0.0806 
    114 H114       25.6815   -0.6367  -12.1790 H         1 UNK         0.0806 
    115 H115       26.9962    0.3116   -8.9797 H         1 UNK         0.3000 
    116 H116       29.8320    0.5304   -9.9111 H         1 UNK         0.0850 
    117 H117       30.2233   -1.7289   -9.0697 H         1 UNK         0.0810 
    118 H118       28.9929   -1.7875  -10.3206 H         1 UNK         0.0810 
    119 H119       28.5359   -1.9152   -8.6232 H         1 UNK         0.0810 
    120 H120       29.9969    2.3854   -8.6854 H         1 UNK         0.3040 
    121 H121       30.0273    2.0652   -5.7171 H         1 UNK         0.0766 
    122 H122       30.0194    4.6105   -7.4516 H         1 UNK         0.0812 
    123 H123       28.6267    3.9887   -6.5697 H         1 UNK         0.0812 
    124 H124       30.0381    4.5629   -5.6949 H         1 UNK         0.0812 
    125 H125       31.8997    2.7711   -4.6666 H         1 UNK         0.3205 
    126 H126       34.0279    3.0364   -4.1822 H         1 UNK         0.0754 
    127 H127       35.6109    4.2068   -5.6458 H         1 UNK         0.0769 
    128 H128       34.0563    5.0194   -5.7180 H         1 UNK         0.0769 
    129 H129       34.5750    3.9799   -7.0445 H         1 UNK         0.0769 
    130 H130       33.0408    0.5490   -4.7442 H         1 UNK         0.2981 
    131 H131       35.0057   -1.0062   -6.2439 H         1 UNK         0.0541 
    132 H132       36.4487   -0.7817   -2.5307 H         1 UNK         0.3459 
    133 H133       35.3684    0.4174   -3.1954 H         1 UNK         0.3459 
    134 H134       33.6500   -2.9736   -5.3633 H         1 UNK         0.0612 
    135 H135       32.5990   -1.8424   -4.5518 H         1 UNK         0.0612 
    136 H136       32.0336   -3.4603   -8.5847 H         1 UNK         0.0624 
    137 H137       32.9535   -4.0684   -7.2387 H         1 UNK         0.0624 
@<TRIPOS>BOND
     1    1    2 1    
     2    1   72 1    
     3    1   73 1    
     4    1   74 1    
     5    2    3 2    
     6    2    4 am   BACKBONE|DICT|INTERRES
     7    4    5 1    
     8    4   75 1    
     9    5    6 1    
    10    5   35 1    
    11    5   76 1    
    12    6    7 1    
    13    6   77 1    
    14    6   78 1    
    15    7    8 1    
    16    8    9 1    
    17    8   79 1    
    18    8   80 1    
    19    9   10 ar   
    20    9   14 ar   
    21   10   11 ar   
    22   10   81 1    
    23   11   12 ar   
    24   11   71 1    
    25   12   13 ar   
    26   12   82 1    
    27   13   14 ar   
    28   13   15 1    
    29   14   83 1    
    30   15   16 1    
    31   15   84 1    
    32   15   85 1    
    33   16   17 1    
    34   17   18 1    
    35   17   86 1    
    36   17   87 1    
    37   18   19 1    
    38   18   37 1    
    39   18   88 1    
    40   19   20 am   BACKBONE|DICT|INTERRES
    41   19   89 1    
    42   20   21 2    
    43   20   22 1    
    44   22   23 1    
    45   22   24 1    
    46   22   90 1    
    47   23   91 1    
    48   23   92 1    
    49   23   93 1    
    50   24   25 am   BACKBONE|DICT|INTERRES
    51   24   94 1    
    52   25   26 2    
    53   25   27 1    
    54   27   28 1    
    55   27   29 1    
    56   27   95 1    
    57   28   96 1    
    58   28   97 1    
    59   28   98 1    
    60   29   30 am   BACKBONE|DICT|INTERRES
    61   29   99 1    
    62   30   31 2    
    63   30   32 1    
    64   32   33 1    
    65   32   34 1    
    66   32  100 1    
    67   33  101 1    
    68   33  102 1    
    69   33  103 1    
    70   34   35 am   BACKBONE|DICT|INTERRES
    71   34  104 1    
    72   35   36 2    
    73   37   38 2    
    74   37   39 am   BACKBONE|DICT|INTERRES
    75   39   40 1    
    76   39  105 1    
    77   40   41 1    
    78   40   42 1    
    79   40  106 1    
    80   41  107 1    
    81   41  108 1    
    82   41  109 1    
    83   42   43 2    
    84   42   44 am   BACKBONE|DICT|INTERRES
    85   44   45 1    
    86   44  110 1    
    87   45   46 1    
    88   45   47 1    
    89   45  111 1    
    90   46  112 1    
    91   46  113 1    
    92   46  114 1    
    93   47   48 2    
    94   47   49 am   BACKBONE|DICT|INTERRES
    95   49   50 1    
    96   49  115 1    
    97   50   51 1    
    98   50   52 1    
    99   50  116 1    
   100   51  117 1    
   101   51  118 1    
   102   51  119 1    
   103   52   53 2    
   104   52   54 am   BACKBONE|DICT|INTERRES
   105   54   55 1    
   106   54  120 1    
   107   55   56 1    
   108   55   57 1    
   109   55  121 1    
   110   56  122 1    
   111   56  123 1    
   112   56  124 1    
   113   57   58 2    
   114   57   59 am   BACKBONE|DICT|INTERRES
   115   59   60 1    
   116   59  125 1    
   117   60   61 1    
   118   60   62 1    
   119   60  126 1    
   120   61  127 1    
   121   61  128 1    
   122   61  129 1    
   123   62   63 2    
   124   62   64 am   BACKBONE|DICT|INTERRES
   125   64   65 1    
   126   64  130 1    
   127   65   66 1    
   128   65   69 1    
   129   65  131 1    
   130   66   67 am   BACKBONE|DICT|INTERRES
   131   66   68 2    
   132   67  132 1    
   133   67  133 1    
   134   69   70 1    
   135   69  134 1    
   136   69  135 1    
   137   70   71 1    
   138   71  136 1    
   139   71  137 1    
@<TRIPOS>SUBSTRUCTURE
     1 UNK         1 GROUP             0       ****    0 ROOT    
