@<TRIPOS>MOLECULE
3R137
137   139    1
SMALL
USER_CHARGES


@<TRIPOS>ATOM
      1 CA         25.8739   -6.2876   -8.3561 C.3       0 UNK        -0.2020 
      2 C          26.0231   -6.3959   -6.8462 C.2       0 UNK         0.4855 
      3 O          25.3822   -7.2477   -6.2301 O.2       0 UNK        -0.5197 
      4 N          26.8617   -5.5417   -6.2432 N.am      1 UNK        -0.4892 
      5 CA         27.1076   -5.5074   -4.7911 C.3       1 UNK         0.0835 
      6 C6         28.4330   -4.7711   -4.4569 C.3       12 UNK        -0.0855 
      7 S7         29.2214   -5.4035   -2.9358 S.3       12 UNK        -0.2931 
      8 C8         30.9553   -4.8482   -3.1262 C.3       12 UNK         0.0378 
      9 C9         31.2192   -3.3630   -2.8580 C.ar      12 UNK        -0.0802 
     10 C10        32.3986   -2.7921   -3.3529 C.ar      12 UNK        -0.0944 
     11 C11        32.6948   -1.4389   -3.1518 C.ar      12 UNK        -0.0787 
     12 C12        31.8114   -0.6648   -2.3919 C.ar      12 UNK        -0.0862 
     13 C13        30.6268   -1.2117   -1.8947 C.ar      12 UNK        -0.0733 
     14 C14        30.3381   -2.5594   -2.1228 C.ar      12 UNK        -0.0832 
     15 C15        29.6500   -0.3339   -1.1271 C.3       12 UNK         0.0240 
     16 S16        28.2131    0.1366   -2.1428 S.3       12 UNK        -0.2522 
     17 C17        28.9700    1.1227   -3.4819 C.3       12 UNK        -0.0967 
     18 CA         28.1607    1.0387   -4.7973 C.3       5 UNK         0.0660 
     19 N          26.7930    1.5488   -4.6158 N.am      5 UNK        -0.4015 
     20 C          25.8366    1.6965   -5.5430 C.2       4 UNK         0.4946 
     21 O          26.0338    1.5717   -6.7529 O.2       4 UNK        -0.5353 
     22 CA         24.4173    2.0145   -5.0285 C.3       4 UNK         0.0277 
     23 CB         23.3813    2.0716   -6.1674 C.3       4 UNK        -0.1981 
     24 N          23.9753    1.0303   -4.0353 N.am      4 UNK        -0.4209 
     25 C          24.3459    1.0119   -2.7475 C.2       3 UNK         0.4942 
     26 O          25.0413    1.8913   -2.2372 O.2       3 UNK        -0.5208 
     27 CA         23.9099   -0.1922   -1.8900 C.3       3 UNK         0.0250 
     28 CB         22.6926    0.1796   -1.0276 C.3       3 UNK        -0.1990 
     29 N          23.6123   -1.4205   -2.6402 N.am      3 UNK        -0.4232 
     30 C          24.4837   -2.0937   -3.4060 C.2       2 UNK         0.4993 
     31 O          25.6343   -1.7141   -3.6295 O.2       2 UNK        -0.5286 
     32 CA         23.9605   -3.3876   -4.0553 C.3       2 UNK         0.0209 
     33 CB         22.9069   -3.0789   -5.1345 C.3       2 UNK        -0.1931 
     34 N          25.0533   -4.1492   -4.6640 N.am      2 UNK        -0.4546 
     35 C          25.9139   -4.9271   -3.9929 C.2       1 UNK         0.5154 
     36 O          25.7844   -5.2010   -2.7982 O.2       1 UNK        -0.5181 
     37 C          28.9544    1.6970   -5.9441 C.2       5 UNK         0.5014 
     38 O          29.7363    1.0144   -6.6113 O.2       5 UNK        -0.5248 
     39 N          28.7194    2.9949   -6.1819 N.am      6 UNK        -0.4434 
     40 CA         29.3118    3.7681   -7.2761 C.3       6 UNK         0.0363 
     41 CB         28.8844    5.2383   -7.1494 C.3       6 UNK        -0.1936 
     42 C          28.9794    3.2296   -8.6809 C.2       6 UNK         0.5081 
     43 O          29.7764    3.4329   -9.5960 O.2       6 UNK        -0.5248 
     44 N          27.8371    2.5441   -8.8204 N.am      7 UNK        -0.4718 
     45 CA         27.4106    1.8625  -10.0420 C.3       7 UNK         0.0273 
     46 CB         25.9988    2.3400  -10.4207 C.3       7 UNK        -0.1935 
     47 C          27.4276    0.3384   -9.8555 C.2       7 UNK         0.5018 
     48 O          27.9050   -0.3708  -10.7403 O.2       7 UNK        -0.5186 
     49 N          26.9213   -0.1409   -8.7103 N.am      8 UNK        -0.4240 
     50 CA         26.7213   -1.5602   -8.4024 C.3       8 UNK         0.0235 
     51 CB         25.7353   -1.6864   -7.2336 C.3       8 UNK        -0.2000 
     52 C          28.0087   -2.3443   -8.1013 C.2       8 UNK         0.4941 
     53 O          27.9650   -3.5753   -8.1140 O.2       8 UNK        -0.5273 
     54 N          29.1152   -1.6467   -7.8241 N.am      9 UNK        -0.4262 
     55 CA         30.4474   -2.2355   -7.6761 C.3       9 UNK         0.0264 
     56 CB         30.8069   -2.2790   -6.1859 C.3       9 UNK        -0.1955 
     57 C          31.5199   -1.4640   -8.4613 C.2       9 UNK         0.5031 
     58 O          32.6871   -1.8540   -8.4051 O.2       9 UNK        -0.5390 
     59 N          31.1284   -0.3729   -9.1410 N.am      10 UNK        -0.4204 
     60 CA         31.9936    0.6304   -9.7760 C.3       10 UNK         0.0237 
     61 CB         32.7069    0.0391  -11.0109 C.3       10 UNK        -0.1985 
     62 C          32.9668    1.2960   -8.7770 C.2       10 UNK         0.4970 
     63 O          34.0920    1.6321   -9.1500 O.2       10 UNK        -0.4914 
     64 N          32.5248    1.4551   -7.5206 N.am      11 UNK        -0.4285 
     65 CA         33.3377    1.9369   -6.3923 C.3       11 UNK         0.1007 
     66 C          33.5951    3.4753   -6.3718 C.2       11 UNK         0.5703 
     67 N          33.0921    4.2516   -7.3248 N.am      11 UNK        -0.7361 
     68 O          34.2757    3.9784   -5.4816 O.2       11 UNK        -0.4986 
     69 C69        32.7762    1.4002   -5.0439 C.3       12 UNK        -0.0947 
     70 S70        34.0824    0.9656   -3.8424 S.3       12 UNK        -0.2240 
     71 C71        33.9705   -0.8622   -3.7763 C.3       12 UNK         0.0194 
     72 H72        25.8159   -7.2801   -8.8021 H         1 UNK         0.0906 
     73 H73        24.9615   -5.7473   -8.6061 H         1 UNK         0.0906 
     74 H74        26.7166   -5.7685   -8.8110 H         1 UNK         0.0906 
     75 H75        27.3619   -4.8592   -6.8111 H         1 UNK         0.3140 
     76 H76        27.2114   -6.5472   -4.4715 H         1 UNK         0.1085 
     77 H77        28.2829   -3.6923   -4.3721 H         1 UNK         0.0836 
     78 H78        29.1449   -4.9196   -5.2702 H         1 UNK         0.0836 
     79 H79        31.5701   -5.4260   -2.4349 H         1 UNK         0.0731 
     80 H80        31.2972   -5.1100   -4.1289 H         1 UNK         0.0731 
     81 H81        33.0852   -3.4036   -3.9229 H         1 UNK         0.1312 
     82 H82        32.0208    0.3781   -2.2035 H         1 UNK         0.1406 
     83 H83        29.4185   -2.9688   -1.7289 H         1 UNK         0.1631 
     84 H84        30.1413    0.5691   -0.7610 H         1 UNK         0.0717 
     85 H85        29.2977   -0.8690   -0.2442 H         1 UNK         0.0717 
     86 H86        29.9854    0.7703   -3.6569 H         1 UNK         0.0934 
     87 H87        29.0609    2.1566   -3.1433 H         1 UNK         0.0934 
     88 H88        28.0589   -0.0157   -5.0634 H         1 UNK         0.0739 
     89 H89        26.5032    1.6577   -3.6489 H         1 UNK         0.3093 
     90 H90        24.4554    3.0010   -4.5616 H         1 UNK         0.0818 
     91 H91        22.3917    2.3322   -5.7919 H         1 UNK         0.0819 
     92 H92        23.6541    2.8262   -6.9065 H         1 UNK         0.0819 
     93 H93        23.3027    1.1177   -6.6907 H         1 UNK         0.0819 
     94 H94        23.4316    0.2534   -4.3802 H         1 UNK         0.3041 
     95 H95        24.7443   -0.4186   -1.2225 H         1 UNK         0.0784 
     96 H96        22.8925    1.0730   -0.4338 H         1 UNK         0.0793 
     97 H97        21.8125    0.3850   -1.6384 H         1 UNK         0.0793 
     98 H98        22.4403   -0.6189   -0.3296 H         1 UNK         0.0793 
     99 H99        22.6822   -1.7971   -2.5236 H         1 UNK         0.3024 
    100 H100       23.4992   -3.9986   -3.2758 H         1 UNK         0.1171 
    101 H101       22.5754   -3.9886   -5.6359 H         1 UNK         0.0786 
    102 H102       23.2871   -2.3977   -5.8952 H         1 UNK         0.0786 
    103 H103       22.0206   -2.6150   -4.7002 H         1 UNK         0.0786 
    104 H104       25.2488   -3.9709   -5.6364 H         1 UNK         0.2977 
    105 H105       28.0512    3.4742   -5.5963 H         1 UNK         0.3127 
    106 H106       30.3944    3.7157   -7.1579 H         1 UNK         0.0770 
    107 H107       27.8027    5.3527   -7.2300 H         1 UNK         0.0814 
    108 H108       29.3357    5.8443   -7.9365 H         1 UNK         0.0814 
    109 H109       29.1997    5.6637   -6.1964 H         1 UNK         0.0814 
    110 H110       27.2505    2.4070   -8.0016 H         1 UNK         0.2983 
    111 H111       28.0824    2.1002  -10.8699 H         1 UNK         0.0947 
    112 H112       25.6442    1.8376  -11.3217 H         1 UNK         0.0806 
    113 H113       25.9866    3.4113  -10.6212 H         1 UNK         0.0806 
    114 H114       25.2760    2.1411   -9.6279 H         1 UNK         0.0806 
    115 H115       26.5548    0.5190   -8.0235 H         1 UNK         0.3000 
    116 H116       26.2649   -2.0252   -9.2789 H         1 UNK         0.0850 
    117 H117       25.4558   -2.7282   -7.0830 H         1 UNK         0.0810 
    118 H118       24.8181   -1.1289   -7.4243 H         1 UNK         0.0810 
    119 H119       26.1642   -1.3194   -6.3004 H         1 UNK         0.0810 
    120 H120       29.0493   -0.6443   -7.6898 H         1 UNK         0.3040 
    121 H121       30.4574   -3.2553   -8.0667 H         1 UNK         0.0766 
    122 H122       31.7729   -2.7612   -6.0375 H         1 UNK         0.0812 
    123 H123       30.8639   -1.2822   -5.7515 H         1 UNK         0.0812 
    124 H124       30.0722   -2.8378   -5.6145 H         1 UNK         0.0812 
    125 H125       30.1408   -0.1706   -9.1705 H         1 UNK         0.3205 
    126 H126       31.3347    1.4216  -10.1321 H         1 UNK         0.0754 
    127 H127       33.2379    0.8145  -11.5645 H         1 UNK         0.0769 
    128 H128       31.9950   -0.4175  -11.6984 H         1 UNK         0.0769 
    129 H129       33.4388   -0.7198  -10.7325 H         1 UNK         0.0769 
    130 H130       31.5710    1.1894   -7.2949 H         1 UNK         0.2981 
    131 H131       34.3245    1.4913   -6.5322 H         1 UNK         0.0541 
    132 H132       32.5710    3.8525   -8.0881 H         1 UNK         0.3459 
    133 H133       33.2775    5.2417   -7.3001 H         1 UNK         0.3459 
    134 H134       32.1777    0.5056   -5.2122 H         1 UNK         0.0612 
    135 H135       32.0937    2.1175   -4.5846 H         1 UNK         0.0612 
    136 H136       34.0812   -1.2449   -4.7923 H         1 UNK         0.0624 
    137 H137       34.8256   -1.2337   -3.2104 H         1 UNK         0.0624 
@<TRIPOS>BOND
     1    1    2 1    
     2    1   72 1    
     3    1   73 1    
     4    1   74 1    
     5    2    3 2    
     6    2    4 am   BACKBONE|DICT|INTERRES
     7    4    5 1    
     8    4   75 1    
     9    5    6 1    
    10    5   35 1    
    11    5   76 1    
    12    6    7 1    
    13    6   77 1    
    14    6   78 1    
    15    7    8 1    
    16    8    9 1    
    17    8   79 1    
    18    8   80 1    
    19    9   10 ar   
    20    9   14 ar   
    21   10   11 ar   
    22   10   81 1    
    23   11   12 ar   
    24   11   71 1    
    25   12   13 ar   
    26   12   82 1    
    27   13   14 ar   
    28   13   15 1    
    29   14   83 1    
    30   15   16 1    
    31   15   84 1    
    32   15   85 1    
    33   16   17 1    
    34   17   18 1    
    35   17   86 1    
    36   17   87 1    
    37   18   19 1    
    38   18   37 1    
    39   18   88 1    
    40   19   20 am   BACKBONE|DICT|INTERRES
    41   19   89 1    
    42   20   21 2    
    43   20   22 1    
    44   22   23 1    
    45   22   24 1    
    46   22   90 1    
    47   23   91 1    
    48   23   92 1    
    49   23   93 1    
    50   24   25 am   BACKBONE|DICT|INTERRES
    51   24   94 1    
    52   25   26 2    
    53   25   27 1    
    54   27   28 1    
    55   27   29 1    
    56   27   95 1    
    57   28   96 1    
    58   28   97 1    
    59   28   98 1    
    60   29   30 am   BACKBONE|DICT|INTERRES
    61   29   99 1    
    62   30   31 2    
    63   30   32 1    
    64   32   33 1    
    65   32   34 1    
    66   32  100 1    
    67   33  101 1    
    68   33  102 1    
    69   33  103 1    
    70   34   35 am   BACKBONE|DICT|INTERRES
    71   34  104 1    
    72   35   36 2    
    73   37   38 2    
    74   37   39 am   BACKBONE|DICT|INTERRES
    75   39   40 1    
    76   39  105 1    
    77   40   41 1    
    78   40   42 1    
    79   40  106 1    
    80   41  107 1    
    81   41  108 1    
    82   41  109 1    
    83   42   43 2    
    84   42   44 am   BACKBONE|DICT|INTERRES
    85   44   45 1    
    86   44  110 1    
    87   45   46 1    
    88   45   47 1    
    89   45  111 1    
    90   46  112 1    
    91   46  113 1    
    92   46  114 1    
    93   47   48 2    
    94   47   49 am   BACKBONE|DICT|INTERRES
    95   49   50 1    
    96   49  115 1    
    97   50   51 1    
    98   50   52 1    
    99   50  116 1    
   100   51  117 1    
   101   51  118 1    
   102   51  119 1    
   103   52   53 2    
   104   52   54 am   BACKBONE|DICT|INTERRES
   105   54   55 1    
   106   54  120 1    
   107   55   56 1    
   108   55   57 1    
   109   55  121 1    
   110   56  122 1    
   111   56  123 1    
   112   56  124 1    
   113   57   58 2    
   114   57   59 am   BACKBONE|DICT|INTERRES
   115   59   60 1    
   116   59  125 1    
   117   60   61 1    
   118   60   62 1    
   119   60  126 1    
   120   61  127 1    
   121   61  128 1    
   122   61  129 1    
   123   62   63 2    
   124   62   64 am   BACKBONE|DICT|INTERRES
   125   64   65 1    
   126   64  130 1    
   127   65   66 1    
   128   65   69 1    
   129   65  131 1    
   130   66   67 am   BACKBONE|DICT|INTERRES
   131   66   68 2    
   132   67  132 1    
   133   67  133 1    
   134   69   70 1    
   135   69  134 1    
   136   69  135 1    
   137   70   71 1    
   138   71  136 1    
   139   71  137 1    
@<TRIPOS>SUBSTRUCTURE
     1 UNK         1 GROUP             0       ****    0 ROOT    
