@<TRIPOS>MOLECULE
3R137
137   139    1
SMALL
USER_CHARGES


@<TRIPOS>ATOM
      1 CA         24.2900   -5.5682   -4.5675 C.3       0 UNK        -0.2020 
      2 C          24.9151   -4.8983   -3.3536 C.2       0 UNK         0.4855 
      3 O          24.2119   -4.2428   -2.5841 O.2       0 UNK        -0.5197 
      4 N          26.2355   -5.0462   -3.1838 N.am      1 UNK        -0.4892 
      5 CA         27.0328   -4.4529   -2.1044 C.3       1 UNK         0.0835 
      6 C6         28.4885   -4.9706   -2.1633 C.3       12 UNK        -0.0855 
      7 S7         29.4890   -4.4901   -0.7137 S.3       12 UNK        -0.2931 
      8 C8         31.1293   -4.2408   -1.4681 C.3       12 UNK         0.0378 
      9 C9         31.1686   -3.0242   -2.3831 C.ar      12 UNK        -0.0802 
     10 C10        31.1447   -3.1829   -3.7719 C.ar      12 UNK        -0.0944 
     11 C11        31.1980   -2.0698   -4.6166 C.ar      12 UNK        -0.0787 
     12 C12        31.2902   -0.7933   -4.0580 C.ar      12 UNK        -0.0862 
     13 C13        31.2736   -0.6138   -2.6707 C.ar      12 UNK        -0.0733 
     14 C14        31.2279   -1.7378   -1.8397 C.ar      12 UNK        -0.0832 
     15 C15        31.2826    0.7814   -2.0476 C.3       12 UNK         0.0240 
     16 S16        30.2974    2.0340   -2.9493 S.3       12 UNK        -0.2522 
     17 C17        28.6925    1.1997   -3.2068 C.3       12 UNK        -0.0967 
     18 CA         28.3414    1.0990   -4.7174 C.3       5 UNK         0.0660 
     19 N          27.6564   -0.1511   -5.0532 N.am      5 UNK        -0.4015 
     20 C          27.3671   -0.5618   -6.2972 C.2       4 UNK         0.4946 
     21 O          27.7652    0.0009   -7.3184 O.2       4 UNK        -0.5353 
     22 CA         26.4262   -1.7727   -6.4214 C.3       4 UNK         0.0277 
     23 CB         27.2063   -3.0974   -6.4098 C.3       4 UNK        -0.1981 
     24 N          25.4104   -1.7756   -5.3639 N.am      4 UNK        -0.4209 
     25 C          24.3733   -0.9247   -5.3207 C.2       3 UNK         0.4942 
     26 O          24.1248   -0.1121   -6.2088 O.2       3 UNK        -0.5208 
     27 CA         23.4918   -0.9404   -4.0607 C.3       3 UNK         0.0250 
     28 CB         22.3273   -1.9303   -4.2169 C.3       3 UNK        -0.1990 
     29 N          24.2543   -1.2393   -2.8458 N.am      3 UNK        -0.4232 
     30 C          25.1327   -0.3860   -2.2955 C.2       2 UNK         0.4993 
     31 O          25.3437    0.7451   -2.7320 O.2       2 UNK        -0.5286 
     32 CA         25.9616   -0.8865   -1.0987 C.3       2 UNK         0.0209 
     33 CB         25.2448   -0.5683    0.2225 C.3       2 UNK        -0.1931 
     34 N          26.2721   -2.3180   -1.1559 N.am      2 UNK        -0.4546 
     35 C          26.9432   -2.9123   -2.1522 C.2       1 UNK         0.5154 
     36 O          27.4056   -2.3010   -3.1178 O.2       1 UNK        -0.5181 
     37 C          27.5454    2.3273   -5.2064 C.2       5 UNK         0.5014 
     38 O          28.1035    3.1699   -5.9095 O.2       5 UNK        -0.5248 
     39 N          26.2464    2.3815   -4.8715 N.am      6 UNK        -0.4434 
     40 CA         25.3092    3.4278   -5.2968 C.3       6 UNK         0.0363 
     41 CB         23.9599    3.2305   -4.5889 C.3       6 UNK        -0.1936 
     42 C          25.1137    3.4975   -6.8223 C.2       6 UNK         0.5081 
     43 O          25.0067    4.5962   -7.3673 O.2       6 UNK        -0.5248 
     44 N          25.1054    2.3345   -7.4885 N.am      7 UNK        -0.4718 
     45 CA         25.0679    2.2022   -8.9491 C.3       7 UNK         0.0273 
     46 CB         24.6591    0.7653   -9.3125 C.3       7 UNK        -0.1935 
     47 C          26.3930    2.5717   -9.6459 C.2       7 UNK         0.5018 
     48 O          26.4048    2.6705  -10.8737 O.2       7 UNK        -0.5186 
     49 N          27.4698    2.7613   -8.8680 N.am      8 UNK        -0.4240 
     50 CA         28.8350    3.0844   -9.2887 C.3       8 UNK         0.0235 
     51 CB         28.8986    4.4805   -9.9457 C.3       8 UNK        -0.2000 
     52 C          29.4705    1.9741  -10.1450 C.2       8 UNK         0.4941 
     53 O          30.0553    2.2604  -11.1930 O.2       8 UNK        -0.5273 
     54 N          29.3541    0.7224   -9.6775 N.am      9 UNK        -0.4262 
     55 CA         30.0530   -0.4366  -10.2407 C.3       9 UNK         0.0264 
     56 CB         29.4698   -1.7183   -9.6254 C.3       9 UNK        -0.1955 
     57 C          31.5758   -0.3555  -10.0108 C.2       9 UNK         0.5031 
     58 O          32.0301    0.3868   -9.1361 O.2       9 UNK        -0.5390 
     59 N          32.3352   -1.1400  -10.7901 N.am      10 UNK        -0.4204 
     60 CA         33.8055   -1.1324  -10.8632 C.3       10 UNK         0.0237 
     61 CB         34.2630   -2.1928  -11.8786 C.3       10 UNK        -0.1985 
     62 C          34.5535   -1.3166   -9.5276 C.2       10 UNK         0.4970 
     63 O          35.6783   -0.8310   -9.4007 O.2       10 UNK        -0.4914 
     64 N          33.9217   -1.9933   -8.5624 N.am      11 UNK        -0.4285 
     65 CA         34.3748   -2.1063   -7.1682 C.3       11 UNK         0.1007 
     66 C          34.3270   -0.7851   -6.3415 C.2       11 UNK         0.5703 
     67 N          33.6699    0.2757   -6.7964 N.am      11 UNK        -0.7361 
     68 O          34.9257   -0.7159   -5.2709 O.2       11 UNK        -0.4986 
     69 C69        33.7024   -3.2983   -6.4245 C.3       12 UNK        -0.0947 
     70 S70        31.9547   -3.6299   -6.8513 S.3       12 UNK        -0.2240 
     71 C71        31.0741   -2.2081   -6.1289 C.3       12 UNK         0.0194 
     72 H72        24.0127   -4.8206   -5.3099 H         1 UNK         0.0906 
     73 H73        24.9719   -6.2769   -5.0370 H         1 UNK         0.0906 
     74 H74        23.3906   -6.1097   -4.2757 H         1 UNK         0.0906 
     75 H75        26.7577   -5.5836   -3.8611 H         1 UNK         0.3140 
     76 H76        26.5969   -4.7951   -1.1631 H         1 UNK         0.1085 
     77 H77        28.4919   -6.0610   -2.2071 H         1 UNK         0.0836 
     78 H78        28.9636   -4.6359   -3.0850 H         1 UNK         0.0836 
     79 H79        31.4181   -5.1426   -2.0105 H         1 UNK         0.0731 
     80 H80        31.8665   -4.1169   -0.6735 H         1 UNK         0.0731 
     81 H81        31.0703   -4.1747   -4.1954 H         1 UNK         0.1312 
     82 H82        31.3343    0.0686   -4.7085 H         1 UNK         0.1406 
     83 H83        31.2242   -1.6157   -0.7649 H         1 UNK         0.1631 
     84 H84        32.3145    1.1285   -1.9837 H         1 UNK         0.0717 
     85 H85        30.9076    0.7375   -1.0239 H         1 UNK         0.0717 
     86 H86        28.7379    0.2053   -2.7614 H         1 UNK         0.0934 
     87 H87        27.9241    1.7272   -2.6380 H         1 UNK         0.0934 
     88 H88        29.2691    1.0783   -5.2929 H         1 UNK         0.0739 
     89 H89        27.3757   -0.7447   -4.2781 H         1 UNK         0.3093 
     90 H90        25.9141   -1.6979   -7.3827 H         1 UNK         0.0818 
     91 H91        27.8027   -3.2178   -5.5054 H         1 UNK         0.0819 
     92 H92        26.5358   -3.9532   -6.4861 H         1 UNK         0.0819 
     93 H93        27.8892   -3.1497   -7.2582 H         1 UNK         0.0819 
     94 H94        25.5948   -2.3585   -4.5595 H         1 UNK         0.3041 
     95 H95        23.0628    0.0574   -3.9479 H         1 UNK         0.0784 
     96 H96        21.7097   -1.6680   -5.0770 H         1 UNK         0.0793 
     97 H97        22.6751   -2.9512   -4.3687 H         1 UNK         0.0793 
     98 H98        21.6802   -1.9235   -3.3398 H         1 UNK         0.0793 
     99 H99        24.1635   -2.1758   -2.4631 H         1 UNK         0.3024 
    100 H100       26.9094   -0.3446   -1.1127 H         1 UNK         0.1171 
    101 H101       25.0217    0.4972    0.2979 H         1 UNK         0.0786 
    102 H102       25.8622   -0.8291    1.0824 H         1 UNK         0.0786 
    103 H103       24.2999   -1.1062    0.3101 H         1 UNK         0.0786 
    104 H104       25.8909   -2.8920   -0.4173 H         1 UNK         0.2977 
    105 H105       25.8788    1.6778   -4.2325 H         1 UNK         0.3127 
    106 H106       25.7247    4.3852   -4.9757 H         1 UNK         0.0770 
    107 H107       23.4917    2.2876   -4.8718 H         1 UNK         0.0814 
    108 H108       23.2640    4.0299   -4.8467 H         1 UNK         0.0814 
    109 H109       24.0742    3.2363   -3.5048 H         1 UNK         0.0814 
    110 H110       25.1042    1.4691   -6.9565 H         1 UNK         0.2983 
    111 H111       24.3037    2.8818   -9.3324 H         1 UNK         0.0947 
    112 H112       24.5655    0.6446  -10.3926 H         1 UNK         0.0806 
    113 H113       23.6965    0.5019   -8.8740 H         1 UNK         0.0806 
    114 H114       25.3968    0.0410   -8.9670 H         1 UNK         0.0806 
    115 H115       27.3518    2.6398   -7.8685 H         1 UNK         0.3000 
    116 H116       29.4277    3.1294   -8.3736 H         1 UNK         0.0850 
    117 H117       29.9313    4.7712  -10.1417 H         1 UNK         0.0810 
    118 H118       28.4652    5.2424   -9.2978 H         1 UNK         0.0810 
    119 H119       28.3684    4.5073  -10.8980 H         1 UNK         0.0810 
    120 H120       28.8412    0.5663   -8.8120 H         1 UNK         0.3040 
    121 H121       29.8703   -0.4508  -11.3172 H         1 UNK         0.0766 
    122 H122       28.3998   -1.7984   -9.8190 H         1 UNK         0.0812 
    123 H123       29.6118   -1.7390   -8.5468 H         1 UNK         0.0812 
    124 H124       29.9414   -2.6119  -10.0357 H         1 UNK         0.0812 
    125 H125       31.8668   -1.7321  -11.4613 H         1 UNK         0.3205 
    126 H126       34.0933   -0.1514  -11.2468 H         1 UNK         0.0754 
    127 H127       35.3495   -2.1959  -11.9799 H         1 UNK         0.0769 
    128 H128       33.8504   -2.0006  -12.8693 H         1 UNK         0.0769 
    129 H129       33.9615   -3.1966  -11.5763 H         1 UNK         0.0769 
    130 H130       33.0000   -2.3584   -8.7486 H         1 UNK         0.2981 
    131 H131       35.4391   -2.3450   -7.2177 H         1 UNK         0.0541 
    132 H132       33.1588    0.2465   -7.6762 H         1 UNK         0.3459 
    133 H133       33.6744    1.1222   -6.2521 H         1 UNK         0.3459 
    134 H134       34.2477   -4.2090   -6.6759 H         1 UNK         0.0612 
    135 H135       33.7955   -3.2077   -5.3406 H         1 UNK         0.0612 
    136 H136       30.0154   -2.3189   -6.3551 H         1 UNK         0.0624 
    137 H137       31.3953   -1.2979   -6.6355 H         1 UNK         0.0624 
@<TRIPOS>BOND
     1    1    2 1    
     2    1   72 1    
     3    1   73 1    
     4    1   74 1    
     5    2    3 2    
     6    2    4 am   BACKBONE|DICT|INTERRES
     7    4    5 1    
     8    4   75 1    
     9    5    6 1    
    10    5   35 1    
    11    5   76 1    
    12    6    7 1    
    13    6   77 1    
    14    6   78 1    
    15    7    8 1    
    16    8    9 1    
    17    8   79 1    
    18    8   80 1    
    19    9   10 ar   
    20    9   14 ar   
    21   10   11 ar   
    22   10   81 1    
    23   11   12 ar   
    24   11   71 1    
    25   12   13 ar   
    26   12   82 1    
    27   13   14 ar   
    28   13   15 1    
    29   14   83 1    
    30   15   16 1    
    31   15   84 1    
    32   15   85 1    
    33   16   17 1    
    34   17   18 1    
    35   17   86 1    
    36   17   87 1    
    37   18   19 1    
    38   18   37 1    
    39   18   88 1    
    40   19   20 am   BACKBONE|DICT|INTERRES
    41   19   89 1    
    42   20   21 2    
    43   20   22 1    
    44   22   23 1    
    45   22   24 1    
    46   22   90 1    
    47   23   91 1    
    48   23   92 1    
    49   23   93 1    
    50   24   25 am   BACKBONE|DICT|INTERRES
    51   24   94 1    
    52   25   26 2    
    53   25   27 1    
    54   27   28 1    
    55   27   29 1    
    56   27   95 1    
    57   28   96 1    
    58   28   97 1    
    59   28   98 1    
    60   29   30 am   BACKBONE|DICT|INTERRES
    61   29   99 1    
    62   30   31 2    
    63   30   32 1    
    64   32   33 1    
    65   32   34 1    
    66   32  100 1    
    67   33  101 1    
    68   33  102 1    
    69   33  103 1    
    70   34   35 am   BACKBONE|DICT|INTERRES
    71   34  104 1    
    72   35   36 2    
    73   37   38 2    
    74   37   39 am   BACKBONE|DICT|INTERRES
    75   39   40 1    
    76   39  105 1    
    77   40   41 1    
    78   40   42 1    
    79   40  106 1    
    80   41  107 1    
    81   41  108 1    
    82   41  109 1    
    83   42   43 2    
    84   42   44 am   BACKBONE|DICT|INTERRES
    85   44   45 1    
    86   44  110 1    
    87   45   46 1    
    88   45   47 1    
    89   45  111 1    
    90   46  112 1    
    91   46  113 1    
    92   46  114 1    
    93   47   48 2    
    94   47   49 am   BACKBONE|DICT|INTERRES
    95   49   50 1    
    96   49  115 1    
    97   50   51 1    
    98   50   52 1    
    99   50  116 1    
   100   51  117 1    
   101   51  118 1    
   102   51  119 1    
   103   52   53 2    
   104   52   54 am   BACKBONE|DICT|INTERRES
   105   54   55 1    
   106   54  120 1    
   107   55   56 1    
   108   55   57 1    
   109   55  121 1    
   110   56  122 1    
   111   56  123 1    
   112   56  124 1    
   113   57   58 2    
   114   57   59 am   BACKBONE|DICT|INTERRES
   115   59   60 1    
   116   59  125 1    
   117   60   61 1    
   118   60   62 1    
   119   60  126 1    
   120   61  127 1    
   121   61  128 1    
   122   61  129 1    
   123   62   63 2    
   124   62   64 am   BACKBONE|DICT|INTERRES
   125   64   65 1    
   126   64  130 1    
   127   65   66 1    
   128   65   69 1    
   129   65  131 1    
   130   66   67 am   BACKBONE|DICT|INTERRES
   131   66   68 2    
   132   67  132 1    
   133   67  133 1    
   134   69   70 1    
   135   69  134 1    
   136   69  135 1    
   137   70   71 1    
   138   71  136 1    
   139   71  137 1    
@<TRIPOS>SUBSTRUCTURE
     1 UNK         1 GROUP             0       ****    0 ROOT    
