@<TRIPOS>MOLECULE
3R137
137   139    1
SMALL
USER_CHARGES


@<TRIPOS>ATOM
      1 CA         26.7532   -0.2251  -10.5579 C.3       0 UNK        -0.2020 
      2 C          26.2113   -1.5110   -9.9588 C.2       0 UNK         0.4855 
      3 O          25.3630   -2.1571  -10.5740 O.2       0 UNK        -0.5197 
      4 N          26.6858   -1.8888   -8.7637 N.am      1 UNK        -0.4892 
      5 CA         26.2207   -3.0795   -8.0376 C.3       1 UNK         0.0835 
      6 C6         27.2806   -3.6255   -7.0500 C.3       12 UNK        -0.0855 
      7 S7         27.9047   -2.3936   -5.8546 S.3       12 UNK        -0.2931 
      8 C8         29.6689   -2.3742   -6.3021 C.3       12 UNK         0.0378 
      9 C9         30.4682   -1.5071   -5.3467 C.ar      12 UNK        -0.0802 
     10 C10        30.9918   -0.2823   -5.7663 C.ar      12 UNK        -0.0944 
     11 C11        31.7264    0.5166   -4.8832 C.ar      12 UNK        -0.0787 
     12 C12        31.8939    0.1009   -3.5595 C.ar      12 UNK        -0.0862 
     13 C13        31.3492   -1.1104   -3.1235 C.ar      12 UNK        -0.0733 
     14 C14        30.6720   -1.9280   -4.0313 C.ar      12 UNK        -0.0832 
     15 C15        31.4399   -1.5094   -1.6586 C.3       12 UNK         0.0240 
     16 S16        29.7897   -1.6886   -0.8991 S.3       12 UNK        -0.2522 
     17 C17        28.9770   -0.1024   -1.3218 C.3       12 UNK        -0.0967 
     18 CA         27.8732   -0.2406   -2.4188 C.3       5 UNK         0.0660 
     19 N          26.8784   -1.2770   -2.1080 N.am      5 UNK        -0.4015 
     20 C          26.0824   -1.3090   -1.0310 C.2       4 UNK         0.4946 
     21 O          25.9825   -0.3951   -0.2095 O.2       4 UNK        -0.5353 
     22 CA         25.2191   -2.5627   -0.8647 C.3       4 UNK         0.0277 
     23 CB         25.0651   -2.9794    0.6098 C.3       4 UNK        -0.1981 
     24 N          23.9151   -2.2410   -1.4215 N.am      4 UNK        -0.4209 
     25 C          23.2494   -2.9816   -2.3117 C.2       3 UNK         0.4942 
     26 O          23.5759   -4.1220   -2.6459 O.2       3 UNK        -0.5208 
     27 CA         22.0219   -2.3275   -2.9752 C.3       3 UNK         0.0250 
     28 CB         21.5333   -1.0385   -2.2759 C.3       3 UNK        -0.1990 
     29 N          22.2419   -2.0650   -4.4028 N.am      3 UNK        -0.4232 
     30 C          23.2877   -1.4456   -4.9735 C.2       2 UNK         0.4993 
     31 O          24.2666   -0.9984   -4.3661 O.2       2 UNK        -0.5286 
     32 CA         23.1960   -1.2443   -6.4922 C.3       2 UNK         0.0209 
     33 CB         22.8572    0.2179   -6.8219 C.3       2 UNK        -0.1931 
     34 N          24.4525   -1.6102   -7.1413 N.am      2 UNK        -0.4546 
     35 C          24.8507   -2.8716   -7.3562 C.2       1 UNK         0.5154 
     36 O          24.1700   -3.8564   -7.0623 O.2       1 UNK        -0.5181 
     37 C          27.2392    1.1245   -2.7848 C.2       5 UNK         0.5014 
     38 O          27.8789    2.1576   -2.5743 O.2       5 UNK        -0.5248 
     39 N          26.0035    1.1350   -3.3131 N.am      6 UNK        -0.4434 
     40 CA         25.2558    2.3688   -3.5896 C.3       6 UNK         0.0363 
     41 CB         23.7570    2.1343   -3.3392 C.3       6 UNK        -0.1936 
     42 C          25.4962    2.9497   -4.9950 C.2       6 UNK         0.5081 
     43 O          25.0469    4.0681   -5.2506 O.2       6 UNK        -0.5248 
     44 N          26.1850    2.2190   -5.8811 N.am      7 UNK        -0.4718 
     45 CA         26.5545    2.6784   -7.2204 C.3       7 UNK         0.0273 
     46 CB         25.5002    2.2306   -8.2457 C.3       7 UNK        -0.1935 
     47 C          27.9394    2.1311   -7.5735 C.2       7 UNK         0.5018 
     48 O          28.2205    0.9674   -7.2779 O.2       7 UNK        -0.5186 
     49 N          28.7675    2.9776   -8.1989 N.am      8 UNK        -0.4240 
     50 CA         30.1523    2.6766   -8.5607 C.3       8 UNK         0.0235 
     51 CB         30.8838    3.9812   -8.9150 C.3       8 UNK        -0.2000 
     52 C          30.2631    1.6638   -9.7090 C.2       8 UNK         0.4941 
     53 O          29.4914    1.7327  -10.6676 O.2       8 UNK        -0.5273 
     54 N          31.2542    0.7764   -9.5972 N.am      9 UNK        -0.4262 
     55 CA         31.6083   -0.2652  -10.5560 C.3       9 UNK         0.0264 
     56 CB         30.5578   -1.4006  -10.5517 C.3       9 UNK        -0.1955 
     57 C          33.0325   -0.7152  -10.1984 C.2       9 UNK         0.5031 
     58 O          33.8989    0.1417  -10.0077 O.2       9 UNK        -0.5390 
     59 N          33.2577   -2.0272  -10.0546 N.am      10 UNK        -0.4204 
     60 CA         34.4933   -2.6131   -9.5294 C.3       10 UNK         0.0237 
     61 CB         34.5908   -4.0780   -9.9963 C.3       10 UNK        -0.1985 
     62 C          34.5464   -2.4733   -7.9945 C.2       10 UNK         0.4970 
     63 O          34.3850   -3.4642   -7.2797 O.2       10 UNK        -0.4914 
     64 N          34.7175   -1.2313   -7.5263 N.am      11 UNK        -0.4285 
     65 CA         34.7649   -0.8418   -6.1099 C.3       11 UNK         0.1007 
     66 C          35.9144   -1.5280   -5.3223 C.2       11 UNK         0.5703 
     67 N          35.6803   -1.8813   -4.0655 N.am      11 UNK        -0.7361 
     68 O          37.0242   -1.6992   -5.8246 O.2       11 UNK        -0.4986 
     69 C69        34.8469    0.6998   -5.9452 C.3       12 UNK        -0.0947 
     70 S70        33.4747    1.5968   -6.7497 S.3       12 UNK        -0.2240 
     71 C71        32.3305    1.8329   -5.3512 C.3       12 UNK         0.0194 
     72 H72        27.2768   -0.4327  -11.4905 H         1 UNK         0.0906 
     73 H73        25.9376    0.4639  -10.7744 H         1 UNK         0.0906 
     74 H74        27.4470    0.2704   -9.8818 H         1 UNK         0.0906 
     75 H75        27.3681   -1.3190   -8.2776 H         1 UNK         0.3140 
     76 H76        26.0550   -3.8684   -8.7754 H         1 UNK         0.1085 
     77 H77        28.1170   -4.0286   -7.6228 H         1 UNK         0.0836 
     78 H78        26.8850   -4.4761   -6.4911 H         1 UNK         0.0836 
     79 H79        29.7719   -2.0147   -7.3262 H         1 UNK         0.0731 
     80 H80        30.0667   -3.3900   -6.2821 H         1 UNK         0.0731 
     81 H81        30.8318    0.0448   -6.7831 H         1 UNK         0.1312 
     82 H82        32.4301    0.7307   -2.8628 H         1 UNK         0.1406 
     83 H83        30.2481   -2.8656   -3.6973 H         1 UNK         0.1631 
     84 H84        32.0115   -0.7757   -1.0881 H         1 UNK         0.0717 
     85 H85        31.9769   -2.4551   -1.5742 H         1 UNK         0.0717 
     86 H86        28.5518    0.3095   -0.4052 H         1 UNK         0.0934 
     87 H87        29.7397    0.6136   -1.6322 H         1 UNK         0.0934 
     88 H88        28.3614   -0.5711   -3.3352 H         1 UNK         0.0739 
     89 H89        26.8388   -2.0458   -2.7625 H         1 UNK         0.3093 
     90 H90        25.6877   -3.3849   -1.4107 H         1 UNK         0.0818 
     91 H91        24.5766   -2.2060    1.2040 H         1 UNK         0.0819 
     92 H92        24.4752   -3.8915    0.7012 H         1 UNK         0.0819 
     93 H93        26.0385   -3.1740    1.0618 H         1 UNK         0.0819 
     94 H94        23.5894   -1.3012   -1.2421 H         1 UNK         0.3041 
     95 H95        21.2173   -3.0617   -2.9118 H         1 UNK         0.0784 
     96 H96        21.3243   -1.2141   -1.2196 H         1 UNK         0.0793 
     97 H97        22.2612   -0.2311   -2.3456 H         1 UNK         0.0793 
     98 H98        20.6073   -0.6798   -2.7256 H         1 UNK         0.0793 
     99 H99        21.5156   -2.4152   -5.0118 H         1 UNK         0.3024 
    100 H100       22.4032   -1.8789   -6.8954 H         1 UNK         0.1171 
    101 H101       22.7814    0.3769   -7.8977 H         1 UNK         0.0786 
    102 H102       21.9004    0.5048   -6.3834 H         1 UNK         0.0786 
    103 H103       23.6097    0.9027   -6.4319 H         1 UNK         0.0786 
    104 H104       25.0940   -0.8650   -7.3637 H         1 UNK         0.2977 
    105 H105       25.5274    0.2595   -3.5222 H         1 UNK         0.3127 
    106 H106       25.5725    3.1384   -2.8822 H         1 UNK         0.0770 
    107 H107       23.3312    1.4184   -4.0397 H         1 UNK         0.0814 
    108 H108       23.1944    3.0624   -3.4487 H         1 UNK         0.0814 
    109 H109       23.5801    1.7702   -2.3276 H         1 UNK         0.0814 
    110 H110       26.5794    1.3302   -5.6001 H         1 UNK         0.2983 
    111 H111       26.6098    3.7696   -7.2292 H         1 UNK         0.0947 
    112 H112       25.7728    2.5522   -9.2516 H         1 UNK         0.0806 
    113 H113       24.5243    2.6620   -8.0231 H         1 UNK         0.0806 
    114 H114       25.3929    1.1466   -8.2645 H         1 UNK         0.0806 
    115 H115       28.4298    3.8950   -8.4510 H         1 UNK         0.3000 
    116 H116       30.6275    2.2463   -7.6809 H         1 UNK         0.0850 
    117 H117       31.9313    3.7886   -9.1520 H         1 UNK         0.0810 
    118 H118       30.8674    4.6852   -8.0828 H         1 UNK         0.0810 
    119 H119       30.4381    4.4712   -9.7816 H         1 UNK         0.0810 
    120 H120       31.9086    0.8698   -8.8299 H         1 UNK         0.3040 
    121 H121       31.6500    0.1769  -11.5534 H         1 UNK         0.0766 
    122 H122       30.7968   -2.1670  -11.2899 H         1 UNK         0.0812 
    123 H123       29.5699   -1.0232  -10.8102 H         1 UNK         0.0812 
    124 H124       30.4783   -1.8815   -9.5770 H         1 UNK         0.0812 
    125 H125       32.4868   -2.6627  -10.2007 H         1 UNK         0.3205 
    126 H126       35.3500   -2.0753   -9.9420 H         1 UNK         0.0754 
    127 H127       33.7513   -4.6762   -9.6396 H         1 UNK         0.0769 
    128 H128       35.5047   -4.5446   -9.6258 H         1 UNK         0.0769 
    129 H129       34.6123   -4.1460  -11.0842 H         1 UNK         0.0769 
    130 H130       34.7813   -0.4756   -8.1982 H         1 UNK         0.2981 
    131 H131       33.8257   -1.1816   -5.6712 H         1 UNK         0.0541 
    132 H132       34.7766   -1.7354   -3.6441 H         1 UNK         0.3459 
    133 H133       36.4189   -2.3129   -3.5325 H         1 UNK         0.3459 
    134 H134       35.7800    1.0742   -6.3703 H         1 UNK         0.0612 
    135 H135       34.8689    0.9711   -4.8881 H         1 UNK         0.0612 
    136 H136       31.5286    2.5108   -5.6419 H         1 UNK         0.0624 
    137 H137       32.8635    2.3312   -4.5401 H         1 UNK         0.0624 
@<TRIPOS>BOND
     1    1    2 1    
     2    1   72 1    
     3    1   73 1    
     4    1   74 1    
     5    2    3 2    
     6    2    4 am   BACKBONE|DICT|INTERRES
     7    4    5 1    
     8    4   75 1    
     9    5    6 1    
    10    5   35 1    
    11    5   76 1    
    12    6    7 1    
    13    6   77 1    
    14    6   78 1    
    15    7    8 1    
    16    8    9 1    
    17    8   79 1    
    18    8   80 1    
    19    9   10 ar   
    20    9   14 ar   
    21   10   11 ar   
    22   10   81 1    
    23   11   12 ar   
    24   11   71 1    
    25   12   13 ar   
    26   12   82 1    
    27   13   14 ar   
    28   13   15 1    
    29   14   83 1    
    30   15   16 1    
    31   15   84 1    
    32   15   85 1    
    33   16   17 1    
    34   17   18 1    
    35   17   86 1    
    36   17   87 1    
    37   18   19 1    
    38   18   37 1    
    39   18   88 1    
    40   19   20 am   BACKBONE|DICT|INTERRES
    41   19   89 1    
    42   20   21 2    
    43   20   22 1    
    44   22   23 1    
    45   22   24 1    
    46   22   90 1    
    47   23   91 1    
    48   23   92 1    
    49   23   93 1    
    50   24   25 am   BACKBONE|DICT|INTERRES
    51   24   94 1    
    52   25   26 2    
    53   25   27 1    
    54   27   28 1    
    55   27   29 1    
    56   27   95 1    
    57   28   96 1    
    58   28   97 1    
    59   28   98 1    
    60   29   30 am   BACKBONE|DICT|INTERRES
    61   29   99 1    
    62   30   31 2    
    63   30   32 1    
    64   32   33 1    
    65   32   34 1    
    66   32  100 1    
    67   33  101 1    
    68   33  102 1    
    69   33  103 1    
    70   34   35 am   BACKBONE|DICT|INTERRES
    71   34  104 1    
    72   35   36 2    
    73   37   38 2    
    74   37   39 am   BACKBONE|DICT|INTERRES
    75   39   40 1    
    76   39  105 1    
    77   40   41 1    
    78   40   42 1    
    79   40  106 1    
    80   41  107 1    
    81   41  108 1    
    82   41  109 1    
    83   42   43 2    
    84   42   44 am   BACKBONE|DICT|INTERRES
    85   44   45 1    
    86   44  110 1    
    87   45   46 1    
    88   45   47 1    
    89   45  111 1    
    90   46  112 1    
    91   46  113 1    
    92   46  114 1    
    93   47   48 2    
    94   47   49 am   BACKBONE|DICT|INTERRES
    95   49   50 1    
    96   49  115 1    
    97   50   51 1    
    98   50   52 1    
    99   50  116 1    
   100   51  117 1    
   101   51  118 1    
   102   51  119 1    
   103   52   53 2    
   104   52   54 am   BACKBONE|DICT|INTERRES
   105   54   55 1    
   106   54  120 1    
   107   55   56 1    
   108   55   57 1    
   109   55  121 1    
   110   56  122 1    
   111   56  123 1    
   112   56  124 1    
   113   57   58 2    
   114   57   59 am   BACKBONE|DICT|INTERRES
   115   59   60 1    
   116   59  125 1    
   117   60   61 1    
   118   60   62 1    
   119   60  126 1    
   120   61  127 1    
   121   61  128 1    
   122   61  129 1    
   123   62   63 2    
   124   62   64 am   BACKBONE|DICT|INTERRES
   125   64   65 1    
   126   64  130 1    
   127   65   66 1    
   128   65   69 1    
   129   65  131 1    
   130   66   67 am   BACKBONE|DICT|INTERRES
   131   66   68 2    
   132   67  132 1    
   133   67  133 1    
   134   69   70 1    
   135   69  134 1    
   136   69  135 1    
   137   70   71 1    
   138   71  136 1    
   139   71  137 1    
@<TRIPOS>SUBSTRUCTURE
     1 UNK         1 GROUP             0       ****    0 ROOT    
