@<TRIPOS>MOLECULE
3R137
137   139    1
SMALL
USER_CHARGES


@<TRIPOS>ATOM
      1 CA         25.2146   -4.8783   -2.8849 C.3       0 UNK        -0.2020 
      2 C          25.7674   -3.9748   -1.7949 C.2       0 UNK         0.4855 
      3 O          25.1379   -3.8258   -0.7464 O.2       0 UNK        -0.5197 
      4 N          26.9416   -3.3733   -2.0213 N.am      1 UNK        -0.4892 
      5 CA         27.6917   -2.5842   -1.0343 C.3       1 UNK         0.0835 
      6 C6         29.2214   -2.6322   -1.2880 C.3       12 UNK        -0.0855 
      7 S7         29.8736   -4.3312   -1.1712 S.3       12 UNK        -0.2931 
      8 C8         31.4005   -4.2046   -2.1599 C.3       12 UNK         0.0378 
      9 C9         31.1506   -4.0155   -3.6535 C.ar      12 UNK        -0.0802 
     10 C10        31.8699   -3.0488   -4.3629 C.ar      12 UNK        -0.0944 
     11 C11        31.7016   -2.8950   -5.7471 C.ar      12 UNK        -0.0787 
     12 C12        30.7802   -3.7153   -6.4089 C.ar      12 UNK        -0.0862 
     13 C13        30.0575   -4.6890   -5.7143 C.ar      12 UNK        -0.0733 
     14 C14        30.2498   -4.8359   -4.3386 C.ar      12 UNK        -0.0832 
     15 C15        29.1022   -5.6192   -6.4460 C.3       12 UNK         0.0240 
     16 S16        27.3777   -5.0479   -6.3282 S.3       12 UNK        -0.2522 
     17 C17        27.0675   -4.3155   -7.9732 C.3       12 UNK        -0.0967 
     18 CA         26.6556   -2.8187   -8.0122 C.3       5 UNK         0.0660 
     19 N          25.3377   -2.5040   -7.4302 N.am      5 UNK        -0.4015 
     20 C          24.9690   -2.3623   -6.1491 C.2       4 UNK         0.4946 
     21 O          25.6880   -2.5904   -5.1739 O.2       4 UNK        -0.5353 
     22 CA         23.5769   -1.7549   -5.9132 C.3       4 UNK         0.0277 
     23 CB         22.5743   -2.8276   -5.4610 C.3       4 UNK        -0.1981 
     24 N          23.6318   -0.6798   -4.9167 N.am      4 UNK        -0.4209 
     25 C          24.3957    0.4202   -5.0191 C.2       3 UNK         0.4942 
     26 O          25.0989    0.6852   -5.9948 O.2       3 UNK        -0.5208 
     27 CA         24.3956    1.3684   -3.8196 C.3       3 UNK         0.0250 
     28 CB         23.0626    2.1414   -3.7391 C.3       3 UNK        -0.1990 
     29 N          24.6705    0.6261   -2.5866 N.am      3 UNK        -0.4232 
     30 C          24.9668    1.1839   -1.4063 C.2       2 UNK         0.4993 
     31 O          25.0534    2.3987   -1.2214 O.2       2 UNK        -0.5286 
     32 CA         25.1905    0.2341   -0.2185 C.3       2 UNK         0.0209 
     33 CB         23.8551   -0.0760    0.4778 C.3       2 UNK        -0.1931 
     34 N          25.8564   -1.0248   -0.5651 N.am      2 UNK        -0.4546 
     35 C          27.1461   -1.1438   -0.9063 C.2       1 UNK         0.5154 
     36 O          27.8901   -0.1783   -1.0855 O.2       1 UNK        -0.5181 
     37 C          27.8043   -1.8533   -7.6373 C.2       5 UNK         0.5014 
     38 O          28.6280   -1.5507   -8.5023 O.2       5 UNK        -0.5248 
     39 N          27.8195   -1.3455   -6.4003 N.am      6 UNK        -0.4434 
     40 CA         28.7723   -0.3764   -5.8642 C.3       6 UNK         0.0363 
     41 CB         28.4389   -0.0957   -4.3937 C.3       6 UNK        -0.1936 
     42 C          28.8251    0.9336   -6.6607 C.2       6 UNK         0.5081 
     43 O          29.9187    1.4100   -6.9594 O.2       6 UNK        -0.5248 
     44 N          27.6574    1.4877   -7.0115 N.am      7 UNK        -0.4718 
     45 CA         27.5507    2.7014   -7.8246 C.3       7 UNK         0.0273 
     46 CB         26.1327    3.2803   -7.7000 C.3       7 UNK        -0.1935 
     47 C          27.9080    2.4600   -9.3005 C.2       7 UNK         0.5018 
     48 O          28.4647    3.3534   -9.9381 O.2       7 UNK        -0.5186 
     49 N          27.5905    1.2622   -9.8124 N.am      8 UNK        -0.4240 
     50 CA         27.8366    0.8576  -11.1984 C.3       8 UNK         0.0235 
     51 CB         26.9998   -0.3876  -11.5353 C.3       8 UNK        -0.2000 
     52 C          29.3259    0.6086  -11.4787 C.2       8 UNK         0.4941 
     53 O          29.8436    1.1013  -12.4813 O.2       8 UNK        -0.5273 
     54 N          29.9893   -0.1318  -10.5804 N.am      9 UNK        -0.4262 
     55 CA         31.4196   -0.4463  -10.6538 C.3       9 UNK         0.0264 
     56 CB         31.6504   -1.8469  -10.0649 C.3       9 UNK        -0.1955 
     57 C          32.3206    0.6243  -10.0022 C.2       9 UNK         0.5031 
     58 O          33.5409    0.4565  -10.0044 O.2       9 UNK        -0.5390 
     59 N          31.7172    1.7087   -9.4932 N.am      10 UNK        -0.4204 
     60 CA         32.3452    2.9157   -8.9428 C.3       10 UNK         0.0237 
     61 CB         33.1373    3.6703  -10.0329 C.3       10 UNK        -0.1985 
     62 C          33.1608    2.6753   -7.6567 C.2       10 UNK         0.4970 
     63 O          34.2126    3.2914   -7.4718 O.2       10 UNK        -0.4914 
     64 N          32.6347    1.8234   -6.7706 N.am      11 UNK        -0.4285 
     65 CA         33.0803    1.6997   -5.3738 C.3       11 UNK         0.1007 
     66 C          32.4023    2.7456   -4.4451 C.2       11 UNK         0.5703 
     67 N          31.2426    3.2894   -4.8001 N.am      11 UNK        -0.7361 
     68 O          32.9430    3.0746   -3.3922 O.2       11 UNK        -0.4986 
     69 C69        32.8709    0.2712   -4.8117 C.3       12 UNK        -0.0947 
     70 S70        33.8285   -0.9833   -5.7225 S.3       12 UNK        -0.2240 
     71 C71        32.4952   -1.8835   -6.5820 C.3       12 UNK         0.0194 
     72 H72        24.2206   -4.5479   -3.1789 H         1 UNK         0.0906 
     73 H73        25.8483   -4.8800   -3.7705 H         1 UNK         0.0906 
     74 H74        25.1396   -5.9022   -2.5206 H         1 UNK         0.0906 
     75 H75        27.3901   -3.4932   -2.9192 H         1 UNK         0.3140 
     76 H76        27.5309   -3.0379   -0.0531 H         1 UNK         0.1085 
     77 H77        29.4670   -2.2160   -2.2647 H         1 UNK         0.0836 
     78 H78        29.7545   -2.0247   -0.5539 H         1 UNK         0.0836 
     79 H79        32.0080   -3.3911   -1.7598 H         1 UNK         0.0731 
     80 H80        31.9811   -5.1175   -2.0212 H         1 UNK         0.0731 
     81 H81        32.5764   -2.4339   -3.8255 H         1 UNK         0.1312 
     82 H82        30.6351   -3.6085   -7.4750 H         1 UNK         0.1406 
     83 H83        29.7023   -5.5980   -3.8005 H         1 UNK         0.1631 
     84 H84        29.1618   -6.6148   -6.0035 H         1 UNK         0.0717 
     85 H85        29.4050   -5.7442   -7.4861 H         1 UNK         0.0717 
     86 H86        27.9398   -4.4640   -8.6116 H         1 UNK         0.0934 
     87 H87        26.2786   -4.9083   -8.4383 H         1 UNK         0.0934 
     88 H88        26.4897   -2.6090   -9.0699 H         1 UNK         0.0739 
     89 H89        24.6431   -2.2603   -8.1218 H         1 UNK         0.3093 
     90 H90        23.2173   -1.3170   -6.8468 H         1 UNK         0.0818 
     91 H91        21.5649   -2.4219   -5.3912 H         1 UNK         0.0819 
     92 H92        22.5405   -3.6571   -6.1688 H         1 UNK         0.0819 
     93 H93        22.8362   -3.2396   -4.4871 H         1 UNK         0.0819 
     94 H94        23.0671   -0.8050   -4.0902 H         1 UNK         0.3041 
     95 H95        25.2055    2.0854   -3.9722 H         1 UNK         0.0784 
     96 H96        22.8307    2.6194   -4.6921 H         1 UNK         0.0793 
     97 H97        22.2272    1.4867   -3.4891 H         1 UNK         0.0793 
     98 H98        23.1006    2.9319   -2.9900 H         1 UNK         0.0793 
     99 H99        24.6940   -0.3818   -2.6600 H         1 UNK         0.3024 
    100 H100       25.8292    0.7615    0.4942 H         1 UNK         0.1171 
    101 H101       23.3419    0.8425    0.7667 H         1 UNK         0.0786 
    102 H102       24.0076   -0.6589    1.3864 H         1 UNK         0.0786 
    103 H103       23.1810   -0.6365   -0.1711 H         1 UNK         0.0786 
    104 H104       25.3245   -1.8848   -0.4609 H         1 UNK         0.2977 
    105 H105       27.0986   -1.6879   -5.7658 H         1 UNK         0.3127 
    106 H106       29.7579   -0.8374   -5.9099 H         1 UNK         0.0770 
    107 H107       28.3773   -1.0214   -3.8259 H         1 UNK         0.0814 
    108 H108       27.4850    0.4207   -4.2821 H         1 UNK         0.0814 
    109 H109       29.2048    0.5259   -3.9279 H         1 UNK         0.0814 
    110 H110       26.7864    1.0641   -6.6948 H         1 UNK         0.2983 
    111 H111       28.2537    3.4401   -7.4326 H         1 UNK         0.0947 
    112 H112       26.0361    4.2053   -8.2701 H         1 UNK         0.0806 
    113 H113       25.8894    3.5113   -6.6626 H         1 UNK         0.0806 
    114 H114       25.3785    2.5857   -8.0720 H         1 UNK         0.0806 
    115 H115       27.1751    0.5788   -9.1970 H         1 UNK         0.3000 
    116 H116       27.5073    1.6705  -11.8498 H         1 UNK         0.0850 
    117 H117       27.1255   -0.6662  -12.5825 H         1 UNK         0.0810 
    118 H118       25.9366   -0.2085  -11.3746 H         1 UNK         0.0810 
    119 H119       27.2917   -1.2495  -10.9353 H         1 UNK         0.0810 
    120 H120       29.4773   -0.5339   -9.7955 H         1 UNK         0.3040 
    121 H121       31.7197   -0.4879  -11.7031 H         1 UNK         0.0766 
    122 H122       32.7122   -2.0864   -9.9944 H         1 UNK         0.0812 
    123 H123       31.1883   -2.6120  -10.6887 H         1 UNK         0.0812 
    124 H124       31.2189   -1.9357   -9.0713 H         1 UNK         0.0812 
    125 H125       30.7066    1.7170   -9.5056 H         1 UNK         0.3205 
    126 H126       31.5179    3.5616   -8.6441 H         1 UNK         0.0754 
    127 H127       33.4788    4.6402   -9.6690 H         1 UNK         0.0769 
    128 H128       32.5215    3.8556  -10.9131 H         1 UNK         0.0769 
    129 H129       34.0195    3.1140  -10.3511 H         1 UNK         0.0769 
    130 H130       31.7163    1.4354   -6.9745 H         1 UNK         0.2981 
    131 H131       34.1516    1.9057   -5.3324 H         1 UNK         0.0541 
    132 H132       30.7740    2.9832   -5.6408 H         1 UNK         0.3459 
    133 H133       30.8121    3.9724   -4.1975 H         1 UNK         0.3459 
    134 H134       31.8118    0.0084   -4.8146 H         1 UNK         0.0612 
    135 H135       33.1910    0.2213   -3.7692 H         1 UNK         0.0612 
    136 H136       31.8119   -1.1535   -7.0161 H         1 UNK         0.0624 
    137 H137       32.9556   -2.4153   -7.4153 H         1 UNK         0.0624 
@<TRIPOS>BOND
     1    1    2 1    
     2    1   72 1    
     3    1   73 1    
     4    1   74 1    
     5    2    3 2    
     6    2    4 am   BACKBONE|DICT|INTERRES
     7    4    5 1    
     8    4   75 1    
     9    5    6 1    
    10    5   35 1    
    11    5   76 1    
    12    6    7 1    
    13    6   77 1    
    14    6   78 1    
    15    7    8 1    
    16    8    9 1    
    17    8   79 1    
    18    8   80 1    
    19    9   10 ar   
    20    9   14 ar   
    21   10   11 ar   
    22   10   81 1    
    23   11   12 ar   
    24   11   71 1    
    25   12   13 ar   
    26   12   82 1    
    27   13   14 ar   
    28   13   15 1    
    29   14   83 1    
    30   15   16 1    
    31   15   84 1    
    32   15   85 1    
    33   16   17 1    
    34   17   18 1    
    35   17   86 1    
    36   17   87 1    
    37   18   19 1    
    38   18   37 1    
    39   18   88 1    
    40   19   20 am   BACKBONE|DICT|INTERRES
    41   19   89 1    
    42   20   21 2    
    43   20   22 1    
    44   22   23 1    
    45   22   24 1    
    46   22   90 1    
    47   23   91 1    
    48   23   92 1    
    49   23   93 1    
    50   24   25 am   BACKBONE|DICT|INTERRES
    51   24   94 1    
    52   25   26 2    
    53   25   27 1    
    54   27   28 1    
    55   27   29 1    
    56   27   95 1    
    57   28   96 1    
    58   28   97 1    
    59   28   98 1    
    60   29   30 am   BACKBONE|DICT|INTERRES
    61   29   99 1    
    62   30   31 2    
    63   30   32 1    
    64   32   33 1    
    65   32   34 1    
    66   32  100 1    
    67   33  101 1    
    68   33  102 1    
    69   33  103 1    
    70   34   35 am   BACKBONE|DICT|INTERRES
    71   34  104 1    
    72   35   36 2    
    73   37   38 2    
    74   37   39 am   BACKBONE|DICT|INTERRES
    75   39   40 1    
    76   39  105 1    
    77   40   41 1    
    78   40   42 1    
    79   40  106 1    
    80   41  107 1    
    81   41  108 1    
    82   41  109 1    
    83   42   43 2    
    84   42   44 am   BACKBONE|DICT|INTERRES
    85   44   45 1    
    86   44  110 1    
    87   45   46 1    
    88   45   47 1    
    89   45  111 1    
    90   46  112 1    
    91   46  113 1    
    92   46  114 1    
    93   47   48 2    
    94   47   49 am   BACKBONE|DICT|INTERRES
    95   49   50 1    
    96   49  115 1    
    97   50   51 1    
    98   50   52 1    
    99   50  116 1    
   100   51  117 1    
   101   51  118 1    
   102   51  119 1    
   103   52   53 2    
   104   52   54 am   BACKBONE|DICT|INTERRES
   105   54   55 1    
   106   54  120 1    
   107   55   56 1    
   108   55   57 1    
   109   55  121 1    
   110   56  122 1    
   111   56  123 1    
   112   56  124 1    
   113   57   58 2    
   114   57   59 am   BACKBONE|DICT|INTERRES
   115   59   60 1    
   116   59  125 1    
   117   60   61 1    
   118   60   62 1    
   119   60  126 1    
   120   61  127 1    
   121   61  128 1    
   122   61  129 1    
   123   62   63 2    
   124   62   64 am   BACKBONE|DICT|INTERRES
   125   64   65 1    
   126   64  130 1    
   127   65   66 1    
   128   65   69 1    
   129   65  131 1    
   130   66   67 am   BACKBONE|DICT|INTERRES
   131   66   68 2    
   132   67  132 1    
   133   67  133 1    
   134   69   70 1    
   135   69  134 1    
   136   69  135 1    
   137   70   71 1    
   138   71  136 1    
   139   71  137 1    
@<TRIPOS>SUBSTRUCTURE
     1 UNK         1 GROUP             0       ****    0 ROOT    
