@<TRIPOS>MOLECULE
3R137
137   139    1
SMALL
USER_CHARGES


@<TRIPOS>ATOM
      1 CA         28.7427   -6.6929   -5.9047 C.3       0 UNK        -0.2020 
      2 C          28.4019   -6.4104   -4.4491 C.2       0 UNK         0.4855 
      3 O          28.1859   -7.3439   -3.6762 O.2       0 UNK        -0.5197 
      4 N          28.3492   -5.1306   -4.0709 N.am      1 UNK        -0.4892 
      5 CA         28.0387   -4.6453   -2.7301 C.3       1 UNK         0.0835 
      6 C6         29.2603   -4.7925   -1.7807 C.3       12 UNK        -0.0855 
      7 S7         29.0543   -4.0604   -0.1133 S.3       12 UNK        -0.2931 
      8 C8         30.6987   -3.3520    0.2382 C.3       12 UNK         0.0378 
      9 C9         31.1369   -2.3216   -0.7951 C.ar      12 UNK        -0.0802 
     10 C10        32.0638   -2.6787   -1.7764 C.ar      12 UNK        -0.0944 
     11 C11        32.4599   -1.7630   -2.7523 C.ar      12 UNK        -0.0787 
     12 C12        31.9636   -0.4567   -2.7085 C.ar      12 UNK        -0.0862 
     13 C13        31.0530   -0.0728   -1.7152 C.ar      12 UNK        -0.0733 
     14 C14        30.6359   -1.0162   -0.7674 C.ar      12 UNK        -0.0832 
     15 C15        30.5445    1.3653   -1.6263 C.3       12 UNK         0.0240 
     16 S16        30.0756    2.0940   -3.2325 S.3       12 UNK        -0.2522 
     17 C17        28.6355    1.0734   -3.6714 C.3       12 UNK        -0.0967 
     18 CA         28.3112    1.1512   -5.1836 C.3       5 UNK         0.0660 
     19 N          27.7782   -0.1130   -5.6872 N.am      5 UNK        -0.4015 
     20 C          27.6213   -0.4152   -6.9815 C.2       4 UNK         0.4946 
     21 O          28.0429    0.2852   -7.9041 O.2       4 UNK        -0.5353 
     22 CA         26.8609   -1.7125   -7.2990 C.3       4 UNK         0.0277 
     23 CB         27.8381   -2.8865   -7.4497 C.3       4 UNK        -0.1981 
     24 N          25.8547   -2.0324   -6.2812 N.am      4 UNK        -0.4209 
     25 C          24.7123   -1.3500   -6.1127 C.2       3 UNK         0.4942 
     26 O          24.3675   -0.4088   -6.8251 O.2       3 UNK        -0.5208 
     27 CA         23.8357   -1.7500   -4.9140 C.3       3 UNK         0.0250 
     28 CB         23.0267   -3.0187   -5.2276 C.3       3 UNK        -0.1990 
     29 N          24.6125   -1.9471   -3.6866 N.am      3 UNK        -0.4232 
     30 C          25.3086   -0.9821   -3.0681 C.2       2 UNK         0.4993 
     31 O          25.3343    0.1880   -3.4425 O.2       2 UNK        -0.5286 
     32 CA         26.1639   -1.3891   -1.8592 C.3       2 UNK         0.0209 
     33 CB         25.3641   -1.2354   -0.5566 C.3       2 UNK        -0.1931 
     34 N          26.7111   -2.7456   -1.9398 N.am      2 UNK        -0.4546 
     35 C          27.5313   -3.1999   -2.8973 C.2       1 UNK         0.5154 
     36 O          27.8582   -2.5400   -3.8916 O.2       1 UNK        -0.5181 
     37 C          27.3759    2.3285   -5.5338 C.2       5 UNK         0.5014 
     38 O          27.8254    3.3013   -6.1399 O.2       5 UNK        -0.5248 
     39 N          26.0819    2.1927   -5.2046 N.am      6 UNK        -0.4434 
     40 CA         25.0186    3.1574   -5.5069 C.3       6 UNK         0.0363 
     41 CB         23.7150    2.7125   -4.8255 C.3       6 UNK        -0.1936 
     42 C          24.7911    3.3721   -7.0132 C.2       6 UNK         0.5081 
     43 O          24.5108    4.4970   -7.4268 O.2       6 UNK        -0.5248 
     44 N          24.9553    2.3073   -7.8106 N.am      7 UNK        -0.4718 
     45 CA         24.9307    2.3414   -9.2772 C.3       7 UNK         0.0273 
     46 CB         24.7645    0.9079   -9.8080 C.3       7 UNK        -0.1935 
     47 C          26.1707    3.0045   -9.9115 C.2       7 UNK         0.5018 
     48 O          26.1867    3.1806  -11.1303 O.2       7 UNK        -0.5186 
     49 N          27.1821    3.3403   -9.0954 N.am      8 UNK        -0.4240 
     50 CA         28.4647    3.9516   -9.4576 C.3       8 UNK         0.0235 
     51 CB         28.2681    5.3384  -10.1079 C.3       8 UNK        -0.2000 
     52 C          29.3858    3.0272  -10.2757 C.2       8 UNK         0.4941 
     53 O          30.2938    3.5213  -10.9468 O.2       8 UNK        -0.5273 
     54 N          29.1747    1.7061  -10.1787 N.am      9 UNK        -0.4262 
     55 CA         30.1107    0.6940  -10.6704 C.3       9 UNK         0.0264 
     56 CB         29.3784   -0.6367  -10.9124 C.3       9 UNK        -0.1955 
     57 C          31.2695    0.5267   -9.6758 C.2       9 UNK         0.5031 
     58 O          32.4239    0.5133  -10.1027 O.2       9 UNK        -0.5390 
     59 N          30.9172    0.4519   -8.3798 N.am      10 UNK        -0.4204 
     60 CA         31.7744    0.4634   -7.1845 C.3       10 UNK         0.0237 
     61 CB         32.0781    1.9280   -6.8069 C.3       10 UNK        -0.1985 
     62 C          33.0615   -0.3884   -7.3042 C.2       10 UNK         0.4970 
     63 O          34.1546    0.1758   -7.3541 O.2       10 UNK        -0.4914 
     64 N          32.9745   -1.7210   -7.3724 N.am      11 UNK        -0.4285 
     65 CA         31.7949   -2.5836   -7.2422 C.3       11 UNK         0.1007 
     66 C          31.9785   -3.8774   -8.0819 C.2       11 UNK         0.5703 
     67 N          30.8985   -4.5883   -8.3769 N.am      11 UNK        -0.7361 
     68 O          33.0878   -4.2481   -8.4644 O.2       11 UNK        -0.4986 
     69 C69        31.4447   -2.8740   -5.7537 C.3       12 UNK        -0.0947 
     70 S70        32.8181   -3.6148   -4.8013 S.3       12 UNK        -0.2240 
     71 C71        33.4343   -2.1907   -3.8409 C.3       12 UNK         0.0194 
     72 H72        29.6834   -7.2391   -5.9701 H         1 UNK         0.0906 
     73 H73        27.9627   -7.3006   -6.3625 H         1 UNK         0.0906 
     74 H74        28.8422   -5.7772   -6.4856 H         1 UNK         0.0906 
     75 H75        28.4970   -4.3780   -4.7311 H         1 UNK         0.3140 
     76 H76        27.2116   -5.2383   -2.3330 H         1 UNK         0.1085 
     77 H77        30.1361   -4.3717   -2.2698 H         1 UNK         0.0836 
     78 H78        29.4890   -5.8505   -1.6446 H         1 UNK         0.0836 
     79 H79        31.4260   -4.1630    0.3029 H         1 UNK         0.0731 
     80 H80        30.6774   -2.8876    1.2251 H         1 UNK         0.0731 
     81 H81        32.4599   -3.6849   -1.8010 H         1 UNK         0.1312 
     82 H82        32.2889    0.2644   -3.4456 H         1 UNK         0.1406 
     83 H83        29.9294   -0.7356    0.0022 H         1 UNK         0.1631 
     84 H84        31.3292    1.9800   -1.1839 H         1 UNK         0.0717 
     85 H85        29.6871    1.4312   -0.9546 H         1 UNK         0.0717 
     86 H86        28.8726    0.0438   -3.3979 H         1 UNK         0.0934 
     87 H87        27.7855    1.3594   -3.0491 H         1 UNK         0.0934 
     88 H88        29.2432    1.3171   -5.7254 H         1 UNK         0.0739 
     89 H89        27.4785   -0.7917   -4.9968 H         1 UNK         0.3093 
     90 H90        26.3486   -1.5730   -8.2527 H         1 UNK         0.0818 
     91 H91        28.4061   -3.0549   -6.5357 H         1 UNK         0.0819 
     92 H92        27.3129   -3.8089   -7.6990 H         1 UNK         0.0819 
     93 H93        28.5487   -2.6923   -8.2529 H         1 UNK         0.0819 
     94 H94        26.0839   -2.7621   -5.6220 H         1 UNK         0.3041 
     95 H95        23.1326   -0.9336   -4.7347 H         1 UNK         0.0784 
     96 H96        22.4318   -2.8868   -6.1327 H         1 UNK         0.0793 
     97 H97        23.6704   -3.8852   -5.3842 H         1 UNK         0.0793 
     98 H98        22.3342   -3.2566   -4.4199 H         1 UNK         0.0793 
     99 H99        24.6422   -2.8802   -3.3025 H         1 UNK         0.3024 
    100 H100       27.0113   -0.7023   -1.8181 H         1 UNK         0.1171 
    101 H101       25.9902   -1.4186    0.3171 H         1 UNK         0.0786 
    102 H102       24.9657   -0.2241   -0.4602 H         1 UNK         0.0786 
    103 H103       24.5194   -1.9242   -0.5161 H         1 UNK         0.0786 
    104 H104       26.5195   -3.3502   -1.1531 H         1 UNK         0.2977 
    105 H105       25.7990    1.3733   -4.6655 H         1 UNK         0.3127 
    106 H106       25.3172    4.1173   -5.0806 H         1 UNK         0.0770 
    107 H107       23.3848    1.7380   -5.1877 H         1 UNK         0.0814 
    108 H108       22.9102    3.4236   -5.0168 H         1 UNK         0.0814 
    109 H109       23.8365    2.6427   -3.7444 H         1 UNK         0.0814 
    110 H110       25.0861    1.3965   -7.3803 H         1 UNK         0.2983 
    111 H111       24.0615    2.9246   -9.5887 H         1 UNK         0.0947 
    112 H112       24.6738    0.8989  -10.8950 H         1 UNK         0.0806 
    113 H113       23.8678    0.4356   -9.4067 H         1 UNK         0.0806 
    114 H114       25.6197    0.2843   -9.5483 H         1 UNK         0.0806 
    115 H115       27.0755    3.1435   -8.1058 H         1 UNK         0.3000 
    116 H116       28.9854    4.1122   -8.5124 H         1 UNK         0.0850 
    117 H117       29.2199    5.8611  -10.2089 H         1 UNK         0.0810 
    118 H118       27.6163    5.9703   -9.5046 H         1 UNK         0.0810 
    119 H119       27.8349    5.2624  -11.1055 H         1 UNK         0.0810 
    120 H120       28.4383    1.3796   -9.5609 H         1 UNK         0.3040 
    121 H121       30.5257    1.0257  -11.6249 H         1 UNK         0.0766 
    122 H122       28.5832   -0.5196  -11.6488 H         1 UNK         0.0812 
    123 H123       28.9316   -1.0343  -10.0024 H         1 UNK         0.0812 
    124 H124       30.0652   -1.3931  -11.2946 H         1 UNK         0.0812 
    125 H125       29.9175    0.4467   -8.1909 H         1 UNK         0.3205 
    126 H126       31.1871    0.0427   -6.3693 H         1 UNK         0.0754 
    127 H127       32.6608    1.9831   -5.8863 H         1 UNK         0.0769 
    128 H128       31.1626    2.4964   -6.6424 H         1 UNK         0.0769 
    129 H129       32.6465    2.4350   -7.5877 H         1 UNK         0.0769 
    130 H130       33.8215   -2.2487   -7.5324 H         1 UNK         0.2981 
    131 H131       30.9447   -2.0744   -7.6935 H         1 UNK         0.0541 
    132 H132       29.9795   -4.3015   -8.0893 H         1 UNK         0.3459 
    133 H133       31.0117   -5.4299   -8.9201 H         1 UNK         0.3459 
    134 H134       31.1152   -1.9621   -5.2562 H         1 UNK         0.0612 
    135 H135       30.5955   -3.5545   -5.6868 H         1 UNK         0.0612 
    136 H136       34.3806   -2.4679   -3.3748 H         1 UNK         0.0624 
    137 H137       33.6552   -1.3652   -4.5180 H         1 UNK         0.0624 
@<TRIPOS>BOND
     1    1    2 1    
     2    1   72 1    
     3    1   73 1    
     4    1   74 1    
     5    2    3 2    
     6    2    4 am   BACKBONE|DICT|INTERRES
     7    4    5 1    
     8    4   75 1    
     9    5    6 1    
    10    5   35 1    
    11    5   76 1    
    12    6    7 1    
    13    6   77 1    
    14    6   78 1    
    15    7    8 1    
    16    8    9 1    
    17    8   79 1    
    18    8   80 1    
    19    9   10 ar   
    20    9   14 ar   
    21   10   11 ar   
    22   10   81 1    
    23   11   12 ar   
    24   11   71 1    
    25   12   13 ar   
    26   12   82 1    
    27   13   14 ar   
    28   13   15 1    
    29   14   83 1    
    30   15   16 1    
    31   15   84 1    
    32   15   85 1    
    33   16   17 1    
    34   17   18 1    
    35   17   86 1    
    36   17   87 1    
    37   18   19 1    
    38   18   37 1    
    39   18   88 1    
    40   19   20 am   BACKBONE|DICT|INTERRES
    41   19   89 1    
    42   20   21 2    
    43   20   22 1    
    44   22   23 1    
    45   22   24 1    
    46   22   90 1    
    47   23   91 1    
    48   23   92 1    
    49   23   93 1    
    50   24   25 am   BACKBONE|DICT|INTERRES
    51   24   94 1    
    52   25   26 2    
    53   25   27 1    
    54   27   28 1    
    55   27   29 1    
    56   27   95 1    
    57   28   96 1    
    58   28   97 1    
    59   28   98 1    
    60   29   30 am   BACKBONE|DICT|INTERRES
    61   29   99 1    
    62   30   31 2    
    63   30   32 1    
    64   32   33 1    
    65   32   34 1    
    66   32  100 1    
    67   33  101 1    
    68   33  102 1    
    69   33  103 1    
    70   34   35 am   BACKBONE|DICT|INTERRES
    71   34  104 1    
    72   35   36 2    
    73   37   38 2    
    74   37   39 am   BACKBONE|DICT|INTERRES
    75   39   40 1    
    76   39  105 1    
    77   40   41 1    
    78   40   42 1    
    79   40  106 1    
    80   41  107 1    
    81   41  108 1    
    82   41  109 1    
    83   42   43 2    
    84   42   44 am   BACKBONE|DICT|INTERRES
    85   44   45 1    
    86   44  110 1    
    87   45   46 1    
    88   45   47 1    
    89   45  111 1    
    90   46  112 1    
    91   46  113 1    
    92   46  114 1    
    93   47   48 2    
    94   47   49 am   BACKBONE|DICT|INTERRES
    95   49   50 1    
    96   49  115 1    
    97   50   51 1    
    98   50   52 1    
    99   50  116 1    
   100   51  117 1    
   101   51  118 1    
   102   51  119 1    
   103   52   53 2    
   104   52   54 am   BACKBONE|DICT|INTERRES
   105   54   55 1    
   106   54  120 1    
   107   55   56 1    
   108   55   57 1    
   109   55  121 1    
   110   56  122 1    
   111   56  123 1    
   112   56  124 1    
   113   57   58 2    
   114   57   59 am   BACKBONE|DICT|INTERRES
   115   59   60 1    
   116   59  125 1    
   117   60   61 1    
   118   60   62 1    
   119   60  126 1    
   120   61  127 1    
   121   61  128 1    
   122   61  129 1    
   123   62   63 2    
   124   62   64 am   BACKBONE|DICT|INTERRES
   125   64   65 1    
   126   64  130 1    
   127   65   66 1    
   128   65   69 1    
   129   65  131 1    
   130   66   67 am   BACKBONE|DICT|INTERRES
   131   66   68 2    
   132   67  132 1    
   133   67  133 1    
   134   69   70 1    
   135   69  134 1    
   136   69  135 1    
   137   70   71 1    
   138   71  136 1    
   139   71  137 1    
@<TRIPOS>SUBSTRUCTURE
     1 UNK         1 GROUP             0       ****    0 ROOT    
