@<TRIPOS>MOLECULE
3R137
137   139    1
SMALL
USER_CHARGES


@<TRIPOS>ATOM
      1 CA         25.8164   -1.4950    1.7874 C.3       0 UNK        -0.2020 
      2 C          25.4850   -2.8527    1.1705 C.2       0 UNK         0.4855 
      3 O          24.7240   -3.6121    1.7673 O.2       0 UNK        -0.5197 
      4 N          26.0317   -3.2184    0.0022 N.am      1 UNK        -0.4892 
      5 CA         26.8977   -2.4199   -0.8763 C.3       1 UNK         0.0835 
      6 C6         27.5175   -3.2904   -1.9957 C.3       12 UNK        -0.0855 
      7 S7         28.6260   -4.5818   -1.3413 S.3       12 UNK        -0.2931 
      8 C8         30.2728   -3.8719   -1.6970 C.3       12 UNK         0.0378 
      9 C9         30.7126   -3.8988   -3.1641 C.ar      12 UNK        -0.0802 
     10 C10        31.7468   -3.0454   -3.5637 C.ar      12 UNK        -0.0944 
     11 C11        32.2260   -3.0559   -4.8775 C.ar      12 UNK        -0.0787 
     12 C12        31.6626   -3.9424   -5.8016 C.ar      12 UNK        -0.0862 
     13 C13        30.6245   -4.7991   -5.4247 C.ar      12 UNK        -0.0733 
     14 C14        30.1574   -4.7755   -4.1063 C.ar      12 UNK        -0.0832 
     15 C15        30.0370   -5.7805   -6.4320 C.3       12 UNK         0.0240 
     16 S16        29.0428   -4.9616   -7.7209 S.3       12 UNK        -0.2522 
     17 C17        27.6110   -4.3578   -6.7626 C.3       12 UNK        -0.0967 
     18 CA         26.9613   -3.0840   -7.3719 C.3       5 UNK         0.0660 
     19 N          25.6302   -2.8075   -6.8191 N.am      5 UNK        -0.4015 
     20 C          25.3366   -2.5530   -5.5388 C.2       4 UNK         0.4946 
     21 O          26.1821   -2.4527   -4.6502 O.2       4 UNK        -0.5353 
     22 CA         23.8553   -2.4019   -5.1763 C.3       4 UNK         0.0277 
     23 CB         23.4277   -3.4776   -4.1637 C.3       4 UNK        -0.1981 
     24 N          23.6601   -1.0813   -4.5898 N.am      4 UNK        -0.4209 
     25 C          23.3994    0.0211   -5.3052 C.2       3 UNK         0.4942 
     26 O          23.1510    0.0096   -6.5118 O.2       3 UNK        -0.5208 
     27 CA         23.4336    1.3712   -4.5656 C.3       3 UNK         0.0250 
     28 CB         22.0155    1.7919   -4.1474 C.3       3 UNK        -0.1990 
     29 N          24.3081    1.3883   -3.3899 N.am      3 UNK        -0.4232 
     30 C          25.6321    1.1791   -3.4077 C.2       2 UNK         0.4993 
     31 O          26.2724    0.9526   -4.4337 O.2       2 UNK        -0.5286 
     32 CA         26.3742    1.2262   -2.0589 C.3       2 UNK         0.0209 
     33 CB         25.5620    1.8766   -0.9143 C.3       2 UNK        -0.1931 
     34 N          26.8661   -0.0934   -1.6418 N.am      2 UNK        -0.4546 
     35 C          26.1401   -1.2085   -1.4661 C.2       1 UNK         0.5154 
     36 O          24.9320   -1.2932   -1.7089 O.2       1 UNK        -0.5181 
     37 C          27.9106   -1.8656   -7.3417 C.2       5 UNK         0.5014 
     38 O          28.3062   -1.3962   -8.4081 O.2       5 UNK        -0.5248 
     39 N          28.2774   -1.3946   -6.1429 N.am      6 UNK        -0.4434 
     40 CA         29.3799   -0.4615   -5.8957 C.3       6 UNK         0.0363 
     41 CB         29.5663   -0.2588   -4.3850 C.3       6 UNK        -0.1936 
     42 C          29.2510    0.8848   -6.6233 C.2       6 UNK         0.5081 
     43 O          30.2304    1.3553   -7.2036 O.2       6 UNK        -0.5248 
     44 N          28.0477    1.4704   -6.6053 N.am      7 UNK        -0.4718 
     45 CA         27.7234    2.7132   -7.3098 C.3       7 UNK         0.0273 
     46 CB         26.3694    3.2436   -6.8128 C.3       7 UNK        -0.1935 
     47 C          27.7069    2.5595   -8.8404 C.2       7 UNK         0.5018 
     48 O          28.0662    3.5058   -9.5408 O.2       7 UNK        -0.5186 
     49 N          27.2985    1.3811   -9.3319 N.am      8 UNK        -0.4240 
     50 CA         27.2458    1.0534  -10.7593 C.3       8 UNK         0.0235 
     51 CB         26.2799   -0.1212  -10.9884 C.3       8 UNK        -0.2000 
     52 C          28.6396    0.7394  -11.3234 C.2       8 UNK         0.4941 
     53 O          28.9764    1.2084  -12.4108 O.2       8 UNK        -0.5273 
     54 N          29.4314   -0.0249  -10.5598 N.am      9 UNK        -0.4262 
     55 CA         30.8253   -0.3622  -10.8557 C.3       9 UNK         0.0264 
     56 CB         31.2281   -1.5716   -9.9971 C.3       9 UNK        -0.1955 
     57 C          31.8017    0.8106  -10.6402 C.2       9 UNK         0.5031 
     58 O          32.9277    0.7430  -11.1353 O.2       9 UNK        -0.5390 
     59 N          31.3574    1.8495   -9.9162 N.am      10 UNK        -0.4204 
     60 CA         32.0894    3.0589   -9.5255 C.3       10 UNK         0.0237 
     61 CB         32.4848    3.8990  -10.7592 C.3       10 UNK        -0.1985 
     62 C          33.2714    2.7437   -8.5899 C.2       10 UNK         0.4970 
     63 O          34.3759    3.2530   -8.7914 O.2       10 UNK        -0.4914 
     64 N          33.0027    1.9086   -7.5815 N.am      11 UNK        -0.4285 
     65 CA         33.9543    1.4661   -6.5514 C.3       11 UNK         0.1007 
     66 C          33.4613    1.7252   -5.0988 C.2       11 UNK         0.5703 
     67 N          32.2952    2.3255   -4.8873 N.am      11 UNK        -0.7361 
     68 O          34.1649    1.4059   -4.1435 O.2       11 UNK        -0.4986 
     69 C69        34.4187    0.0034   -6.7914 C.3       12 UNK        -0.0947 
     70 S70        33.0519   -1.2053   -6.7987 S.3       12 UNK        -0.2240 
     71 C71        33.3797   -2.1379   -5.2705 C.3       12 UNK         0.0194 
     72 H72        25.5460   -1.4843    2.8432 H         1 UNK         0.0906 
     73 H73        26.8794   -1.2673    1.7247 H         1 UNK         0.0906 
     74 H74        25.2543   -0.7022    1.2947 H         1 UNK         0.0906 
     75 H75        25.7908   -4.1264   -0.3674 H         1 UNK         0.3140 
     76 H76        27.7195   -2.0361   -0.2691 H         1 UNK         0.1085 
     77 H77        26.7306   -3.7888   -2.5638 H         1 UNK         0.0836 
     78 H78        28.0676   -2.6790   -2.7132 H         1 UNK         0.0836 
     79 H79        31.0109   -4.4258   -1.1155 H         1 UNK         0.0731 
     80 H80        30.2951   -2.8472   -1.3222 H         1 UNK         0.0731 
     81 H81        32.1912   -2.3748   -2.8406 H         1 UNK         0.1312 
     82 H82        32.0326   -3.9677   -6.8175 H         1 UNK         0.1406 
     83 H83        29.3699   -5.4565   -3.8163 H         1 UNK         0.1631 
     84 H84        29.4237   -6.5324   -5.9329 H         1 UNK         0.0717 
     85 H85        30.8511   -6.3245   -6.9130 H         1 UNK         0.0717 
     86 H86        26.8792   -5.1663   -6.7289 H         1 UNK         0.0934 
     87 H87        27.9046   -4.1823   -5.7271 H         1 UNK         0.0934 
     88 H88        26.7777   -3.2955   -8.4269 H         1 UNK         0.0739 
     89 H89        24.8736   -2.8297   -7.4884 H         1 UNK         0.3093 
     90 H90        23.2399   -2.5118   -6.0719 H         1 UNK         0.0818 
     91 H91        22.3756   -3.3748   -3.8976 H         1 UNK         0.0819 
     92 H92        23.5633   -4.4778   -4.5769 H         1 UNK         0.0819 
     93 H93        24.0112   -3.4236   -3.2433 H         1 UNK         0.0819 
     94 H94        23.9455   -0.9803   -3.6212 H         1 UNK         0.3041 
     95 H95        23.8167    2.1141   -5.2678 H         1 UNK         0.0784 
     96 H96        21.3457    1.8157   -5.0084 H         1 UNK         0.0793 
     97 H97        21.5873    1.1003   -3.4206 H         1 UNK         0.0793 
     98 H98        22.0096    2.7896   -3.7081 H         1 UNK         0.0793 
     99 H99        23.8641    1.5409   -2.4962 H         1 UNK         0.3024 
    100 H100       27.2539    1.8492   -2.2303 H         1 UNK         0.1171 
    101 H101       25.2202    2.8756   -1.1893 H         1 UNK         0.0786 
    102 H102       24.6869    1.2878   -0.6367 H         1 UNK         0.0786 
    103 H103       26.1745    1.9886   -0.0195 H         1 UNK         0.0786 
    104 H104       27.8576   -0.1356   -1.4524 H         1 UNK         0.2977 
    105 H105       27.7843   -1.7677   -5.3345 H         1 UNK         0.3127 
    106 H106       30.2756   -0.9494   -6.2788 H         1 UNK         0.0770 
    107 H107       28.7327    0.2830   -3.9418 H         1 UNK         0.0814 
    108 H108       30.4735    0.3091   -4.1795 H         1 UNK         0.0814 
    109 H109       29.6584   -1.2110   -3.8662 H         1 UNK         0.0814 
    110 H110       27.3231    1.0694   -6.0123 H         1 UNK         0.2983 
    111 H111       28.4908    3.4504   -7.0631 H         1 UNK         0.0947 
    112 H112       26.1043    4.1750   -7.3151 H         1 UNK         0.0806 
    113 H113       26.3932    3.4491   -5.7425 H         1 UNK         0.0806 
    114 H114       25.5660    2.5298   -6.9993 H         1 UNK         0.0806 
    115 H115       27.0888    0.6371   -8.6805 H         1 UNK         0.3000 
    116 H116       26.8555    1.9195  -11.2987 H         1 UNK         0.0850 
    117 H117       26.2034   -0.3589  -12.0502 H         1 UNK         0.0810 
    118 H118       25.2758    0.1175  -10.6374 H         1 UNK         0.0810 
    119 H119       26.6075   -1.0264  -10.4762 H         1 UNK         0.0810 
    120 H120       29.0417   -0.4260   -9.7056 H         1 UNK         0.3040 
    121 H121       30.8937   -0.6505  -11.9067 H         1 UNK         0.0766 
    122 H122       31.0870   -1.3682   -8.9355 H         1 UNK         0.0812 
    123 H123       32.2761   -1.8351  -10.1460 H         1 UNK         0.0812 
    124 H124       30.6319   -2.4500  -10.2451 H         1 UNK         0.0812 
    125 H125       30.4408    1.7518   -9.4995 H         1 UNK         0.3205 
    126 H126       31.3896    3.6546   -8.9372 H         1 UNK         0.0754 
    127 H127       32.9114    4.8564  -10.4578 H         1 UNK         0.0769 
    128 H128       31.6185    4.1131  -11.3853 H         1 UNK         0.0769 
    129 H129       33.2281    3.3931  -11.3761 H         1 UNK         0.0769 
    130 H130       32.0542    1.5517   -7.4837 H         1 UNK         0.2981 
    131 H131       34.8486    2.0868   -6.6249 H         1 UNK         0.0541 
    132 H132       31.7022    2.5850   -5.6597 H         1 UNK         0.3459 
    133 H133       32.0034    2.5079   -3.9409 H         1 UNK         0.3459 
    134 H134       35.1722   -0.2896   -6.0583 H         1 UNK         0.0612 
    135 H135       34.9156   -0.0607   -7.7604 H         1 UNK         0.0612 
    136 H136       33.5877   -1.4278   -4.4686 H         1 UNK         0.0624 
    137 H137       34.2824   -2.7353   -5.4033 H         1 UNK         0.0624 
@<TRIPOS>BOND
     1    1    2 1    
     2    1   72 1    
     3    1   73 1    
     4    1   74 1    
     5    2    3 2    
     6    2    4 am   BACKBONE|DICT|INTERRES
     7    4    5 1    
     8    4   75 1    
     9    5    6 1    
    10    5   35 1    
    11    5   76 1    
    12    6    7 1    
    13    6   77 1    
    14    6   78 1    
    15    7    8 1    
    16    8    9 1    
    17    8   79 1    
    18    8   80 1    
    19    9   10 ar   
    20    9   14 ar   
    21   10   11 ar   
    22   10   81 1    
    23   11   12 ar   
    24   11   71 1    
    25   12   13 ar   
    26   12   82 1    
    27   13   14 ar   
    28   13   15 1    
    29   14   83 1    
    30   15   16 1    
    31   15   84 1    
    32   15   85 1    
    33   16   17 1    
    34   17   18 1    
    35   17   86 1    
    36   17   87 1    
    37   18   19 1    
    38   18   37 1    
    39   18   88 1    
    40   19   20 am   BACKBONE|DICT|INTERRES
    41   19   89 1    
    42   20   21 2    
    43   20   22 1    
    44   22   23 1    
    45   22   24 1    
    46   22   90 1    
    47   23   91 1    
    48   23   92 1    
    49   23   93 1    
    50   24   25 am   BACKBONE|DICT|INTERRES
    51   24   94 1    
    52   25   26 2    
    53   25   27 1    
    54   27   28 1    
    55   27   29 1    
    56   27   95 1    
    57   28   96 1    
    58   28   97 1    
    59   28   98 1    
    60   29   30 am   BACKBONE|DICT|INTERRES
    61   29   99 1    
    62   30   31 2    
    63   30   32 1    
    64   32   33 1    
    65   32   34 1    
    66   32  100 1    
    67   33  101 1    
    68   33  102 1    
    69   33  103 1    
    70   34   35 am   BACKBONE|DICT|INTERRES
    71   34  104 1    
    72   35   36 2    
    73   37   38 2    
    74   37   39 am   BACKBONE|DICT|INTERRES
    75   39   40 1    
    76   39  105 1    
    77   40   41 1    
    78   40   42 1    
    79   40  106 1    
    80   41  107 1    
    81   41  108 1    
    82   41  109 1    
    83   42   43 2    
    84   42   44 am   BACKBONE|DICT|INTERRES
    85   44   45 1    
    86   44  110 1    
    87   45   46 1    
    88   45   47 1    
    89   45  111 1    
    90   46  112 1    
    91   46  113 1    
    92   46  114 1    
    93   47   48 2    
    94   47   49 am   BACKBONE|DICT|INTERRES
    95   49   50 1    
    96   49  115 1    
    97   50   51 1    
    98   50   52 1    
    99   50  116 1    
   100   51  117 1    
   101   51  118 1    
   102   51  119 1    
   103   52   53 2    
   104   52   54 am   BACKBONE|DICT|INTERRES
   105   54   55 1    
   106   54  120 1    
   107   55   56 1    
   108   55   57 1    
   109   55  121 1    
   110   56  122 1    
   111   56  123 1    
   112   56  124 1    
   113   57   58 2    
   114   57   59 am   BACKBONE|DICT|INTERRES
   115   59   60 1    
   116   59  125 1    
   117   60   61 1    
   118   60   62 1    
   119   60  126 1    
   120   61  127 1    
   121   61  128 1    
   122   61  129 1    
   123   62   63 2    
   124   62   64 am   BACKBONE|DICT|INTERRES
   125   64   65 1    
   126   64  130 1    
   127   65   66 1    
   128   65   69 1    
   129   65  131 1    
   130   66   67 am   BACKBONE|DICT|INTERRES
   131   66   68 2    
   132   67  132 1    
   133   67  133 1    
   134   69   70 1    
   135   69  134 1    
   136   69  135 1    
   137   70   71 1    
   138   71  136 1    
   139   71  137 1    
@<TRIPOS>SUBSTRUCTURE
     1 UNK         1 GROUP             0       ****    0 ROOT    
