@<TRIPOS>MOLECULE
3R137
137   139    1
SMALL
USER_CHARGES


@<TRIPOS>ATOM
      1 CA         29.4690   -5.4778   -0.9874 C.3       0 UNK        -0.2020 
      2 C          28.2967   -4.7180   -0.3850 C.2       0 UNK         0.4855 
      3 O          27.4674   -5.3143    0.3016 O.2       0 UNK        -0.5197 
      4 N          28.2277   -3.4039   -0.6361 N.am      1 UNK        -0.4892 
      5 CA         27.2055   -2.4806   -0.1194 C.3       1 UNK         0.0835 
      6 C6         27.5074   -1.0035   -0.4886 C.3       12 UNK        -0.0855 
      7 S7         29.2194   -0.4686   -0.1505 S.3       12 UNK        -0.2931 
      8 C8         29.5680    0.5504   -1.6260 C.3       12 UNK         0.0378 
      9 C9         30.2809   -0.2123   -2.7404 C.ar      12 UNK        -0.0802 
     10 C10        31.4427    0.3284   -3.2999 C.ar      12 UNK        -0.0944 
     11 C11        32.1252   -0.3419   -4.3176 C.ar      12 UNK        -0.0787 
     12 C12        31.6464   -1.5762   -4.7677 C.ar      12 UNK        -0.0862 
     13 C13        30.4946   -2.1382   -4.2111 C.ar      12 UNK        -0.0733 
     14 C14        29.7975   -1.4355   -3.2230 C.ar      12 UNK        -0.0832 
     15 C15        30.0531   -3.5327   -4.6350 C.3       12 UNK         0.0240 
     16 S16        29.2515   -3.5537   -6.2661 S.3       12 UNK        -0.2522 
     17 C17        27.5522   -3.0470   -5.8544 C.3       12 UNK        -0.0967 
     18 CA         27.0395   -1.9154   -6.7752 C.3       5 UNK         0.0660 
     19 N          25.5765   -1.8943   -6.8341 N.am      5 UNK        -0.4015 
     20 C          24.8559   -1.2297   -7.7476 C.2       4 UNK         0.4946 
     21 O          25.3472   -0.5760   -8.6659 O.2       4 UNK        -0.5353 
     22 CA         23.3269   -1.2734   -7.5898 C.3       4 UNK         0.0277 
     23 CB         22.7507   -2.5399   -8.2426 C.3       4 UNK        -0.1981 
     24 N          22.9012   -1.2012   -6.1898 N.am      4 UNK        -0.4209 
     25 C          23.0788   -0.1284   -5.4058 C.2       3 UNK         0.4942 
     26 O          23.5768    0.9277   -5.7935 O.2       3 UNK        -0.5208 
     27 CA         22.6811   -0.2757   -3.9279 C.3       3 UNK         0.0250 
     28 CB         21.1833    0.0137   -3.7400 C.3       3 UNK        -0.1990 
     29 N          23.0097   -1.5842   -3.3472 N.am      3 UNK        -0.4232 
     30 C          24.2458   -2.0962   -3.2755 C.2       2 UNK         0.4993 
     31 O          25.2411   -1.5646   -3.7774 O.2       2 UNK        -0.5286 
     32 CA         24.4064   -3.4411   -2.5510 C.3       2 UNK         0.0209 
     33 CB         24.4629   -4.5971   -3.5620 C.3       2 UNK        -0.1931 
     34 N          25.6467   -3.4134   -1.7776 N.am      2 UNK        -0.4546 
     35 C          25.7711   -2.8010   -0.5923 C.2       1 UNK         0.5154 
     36 O          24.8123   -2.4314    0.0879 O.2       1 UNK        -0.5181 
     37 C          27.6006   -0.5390   -6.3731 C.2       5 UNK         0.5014 
     38 O          28.5453   -0.0612   -7.0040 O.2       5 UNK        -0.5248 
     39 N          26.9691    0.0904   -5.3703 N.am      6 UNK        -0.4434 
     40 CA         27.2574    1.4531   -4.9208 C.3       6 UNK         0.0363 
     41 CB         26.3905    1.7813   -3.6937 C.3       6 UNK        -0.1936 
     42 C          27.0433    2.5007   -6.0278 C.2       6 UNK         0.5081 
     43 O          27.8757    3.3943   -6.1811 O.2       6 UNK        -0.5248 
     44 N          25.9468    2.3609   -6.7876 N.am      7 UNK        -0.4718 
     45 CA         25.6210    3.2035   -7.9401 C.3       7 UNK         0.0273 
     46 CB         24.1672    2.9519   -8.3711 C.3       7 UNK        -0.1935 
     47 C          26.5825    2.9990   -9.1228 C.2       7 UNK         0.5018 
     48 O          26.9957    3.9842   -9.7358 O.2       7 UNK        -0.5186 
     49 N          26.9208    1.7361   -9.4231 N.am      8 UNK        -0.4240 
     50 CA         27.8572    1.3614  -10.4865 C.3       8 UNK         0.0235 
     51 CB         27.7693   -0.1516  -10.7455 C.3       8 UNK        -0.2000 
     52 C          29.3114    1.7617  -10.1894 C.2       8 UNK         0.4941 
     53 O          30.0347    2.1026  -11.1262 O.2       8 UNK        -0.5273 
     54 N          29.7063    1.6969   -8.9077 N.am      9 UNK        -0.4262 
     55 CA         31.0546    1.9239   -8.3768 C.3       9 UNK         0.0264 
     56 CB         31.4875    3.3941   -8.5555 C.3       9 UNK        -0.1955 
     57 C          32.0591    0.9148   -8.9612 C.2       9 UNK         0.5031 
     58 O          33.0755    1.3046   -9.5415 O.2       9 UNK        -0.5390 
     59 N          31.7406   -0.3783   -8.7934 N.am      10 UNK        -0.4204 
     60 CA         32.4546   -1.5338   -9.3597 C.3       10 UNK         0.0237 
     61 CB         31.7080   -2.8180   -8.9656 C.3       10 UNK        -0.1985 
     62 C          33.9482   -1.6502   -8.9906 C.2       10 UNK         0.4970 
     63 O          34.6785   -2.3773   -9.6651 O.2       10 UNK        -0.4914 
     64 N          34.3727   -0.9326   -7.9454 N.am      11 UNK        -0.4285 
     65 CA         35.7695   -0.7561   -7.5234 C.3       11 UNK         0.1007 
     66 C          36.6559   -0.0065   -8.5613 C.2       11 UNK         0.5703 
     67 N          36.0890    0.7721   -9.4777 N.am      11 UNK        -0.7361 
     68 O          37.8775   -0.1356   -8.5309 O.2       11 UNK        -0.4986 
     69 C69        35.8655   -0.0527   -6.1410 C.3       12 UNK        -0.0947 
     70 S70        34.8147   -0.8181   -4.8611 S.3       12 UNK        -0.2240 
     71 C71        33.3635    0.2819   -4.9431 C.3       12 UNK         0.0194 
     72 H72        30.0122   -6.0092   -0.2064 H         1 UNK         0.0906 
     73 H73        29.1099   -6.2096   -1.7104 H         1 UNK         0.0906 
     74 H74        30.1707   -4.8148   -1.4934 H         1 UNK         0.0906 
     75 H75        28.9917   -2.9599   -1.1237 H         1 UNK         0.3140 
     76 H76        27.2121   -2.5713    0.9690 H         1 UNK         0.1085 
     77 H77        27.2826   -0.8269   -1.5422 H         1 UNK         0.0836 
     78 H78        26.8428   -0.3374    0.0657 H         1 UNK         0.0836 
     79 H79        28.6518    0.9939   -2.0128 H         1 UNK         0.0731 
     80 H80        30.1825    1.3900   -1.2975 H         1 UNK         0.0731 
     81 H81        31.8155    1.2800   -2.9459 H         1 UNK         0.1312 
     82 H82        32.1818   -2.1103   -5.5406 H         1 UNK         0.1406 
     83 H83        28.8921   -1.8549   -2.8157 H         1 UNK         0.1631 
     84 H84        29.3888   -3.9781   -3.8931 H         1 UNK         0.0717 
     85 H85        30.9293   -4.1816   -4.6760 H         1 UNK         0.0717 
     86 H86        26.9334   -3.9366   -5.9799 H         1 UNK         0.0934 
     87 H87        27.4697   -2.7730   -4.8013 H         1 UNK         0.0934 
     88 H88        27.3857   -2.1211   -7.7908 H         1 UNK         0.0739 
     89 H89        25.0902   -2.3428   -6.0722 H         1 UNK         0.3093 
     90 H90        22.9174   -0.4050   -8.1106 H         1 UNK         0.0818 
     91 H91        21.6609   -2.5410   -8.2122 H         1 UNK         0.0819 
     92 H92        23.0430   -2.6034   -9.2919 H         1 UNK         0.0819 
     93 H93        23.1020   -3.4480   -7.7512 H         1 UNK         0.0819 
     94 H94        22.4721   -2.0240   -5.7919 H         1 UNK         0.3041 
     95 H95        23.2429    0.4751   -3.3683 H         1 UNK         0.0784 
     96 H96        20.9206    0.9901   -4.1499 H         1 UNK         0.0793 
     97 H97        20.5601   -0.7283   -4.2408 H         1 UNK         0.0793 
     98 H98        20.9104    0.0251   -2.6845 H         1 UNK         0.0793 
     99 H99        22.2462   -2.0907   -2.9215 H         1 UNK         0.3024 
    100 H100       23.5604   -3.5984   -1.8776 H         1 UNK         0.1171 
    101 H101       23.5465   -4.6479   -4.1516 H         1 UNK         0.0786 
    102 H102       24.5744   -5.5567   -3.0565 H         1 UNK         0.0786 
    103 H103       25.2947   -4.4895   -4.2579 H         1 UNK         0.0786 
    104 H104       26.4923   -3.6585   -2.2695 H         1 UNK         0.2977 
    105 H105       26.2280   -0.4057   -4.8791 H         1 UNK         0.3127 
    106 H106       28.3082    1.4826   -4.6243 H         1 UNK         0.0770 
    107 H107       25.3348    1.8591   -3.9538 H         1 UNK         0.0814 
    108 H108       26.6871    2.7339   -3.2533 H         1 UNK         0.0814 
    109 H109       26.4800    1.0196   -2.9205 H         1 UNK         0.0814 
    110 H110       25.2718    1.6418   -6.5426 H         1 UNK         0.2983 
    111 H111       25.7049    4.2460   -7.6250 H         1 UNK         0.0947 
    112 H112       23.8956    3.5826   -9.2186 H         1 UNK         0.0806 
    113 H113       23.4705    3.1763   -7.5631 H         1 UNK         0.0806 
    114 H114       24.0078    1.9153   -8.6698 H         1 UNK         0.0806 
    115 H115       26.4754    0.9736   -8.9182 H         1 UNK         0.3000 
    116 H116       27.5527    1.8804  -11.3980 H         1 UNK         0.0850 
    117 H117       28.4529   -0.4540  -11.5401 H         1 UNK         0.0810 
    118 H118       26.7652   -0.4428  -11.0542 H         1 UNK         0.0810 
    119 H119       28.0262   -0.7279   -9.8558 H         1 UNK         0.0810 
    120 H120       29.0434    1.3207   -8.2330 H         1 UNK         0.3040 
    121 H121       30.9983    1.7260   -7.3049 H         1 UNK         0.0766 
    122 H122       32.4462    3.5783   -8.0691 H         1 UNK         0.0812 
    123 H123       30.7610    4.0754   -8.1122 H         1 UNK         0.0812 
    124 H124       31.6013    3.6620   -9.6063 H         1 UNK         0.0812 
    125 H125       30.8831   -0.5846   -8.2974 H         1 UNK         0.3205 
    126 H126       32.4074   -1.4319  -10.4457 H         1 UNK         0.0754 
    127 H127       32.1593   -3.6937   -9.4344 H         1 UNK         0.0769 
    128 H128       30.6639   -2.7879   -9.2786 H         1 UNK         0.0769 
    129 H129       31.7321   -2.9793   -7.8876 H         1 UNK         0.0769 
    130 H130       33.6961   -0.3666   -7.4615 H         1 UNK         0.2981 
    131 H131       36.1938   -1.7562   -7.4176 H         1 UNK         0.0541 
    132 H132       36.6710    1.2515  -10.1457 H         1 UNK         0.3459 
    133 H133       35.0823    0.8980   -9.5023 H         1 UNK         0.3459 
    134 H134       35.6075    1.0049   -6.2262 H         1 UNK         0.0612 
    135 H135       36.8949   -0.0810   -5.7790 H         1 UNK         0.0612 
    136 H136       33.6171    1.2235   -4.4536 H         1 UNK         0.0624 
    137 H137       33.1327    0.5295   -5.9784 H         1 UNK         0.0624 
@<TRIPOS>BOND
     1    1    2 1    
     2    1   72 1    
     3    1   73 1    
     4    1   74 1    
     5    2    3 2    
     6    2    4 am   BACKBONE|DICT|INTERRES
     7    4    5 1    
     8    4   75 1    
     9    5    6 1    
    10    5   35 1    
    11    5   76 1    
    12    6    7 1    
    13    6   77 1    
    14    6   78 1    
    15    7    8 1    
    16    8    9 1    
    17    8   79 1    
    18    8   80 1    
    19    9   10 ar   
    20    9   14 ar   
    21   10   11 ar   
    22   10   81 1    
    23   11   12 ar   
    24   11   71 1    
    25   12   13 ar   
    26   12   82 1    
    27   13   14 ar   
    28   13   15 1    
    29   14   83 1    
    30   15   16 1    
    31   15   84 1    
    32   15   85 1    
    33   16   17 1    
    34   17   18 1    
    35   17   86 1    
    36   17   87 1    
    37   18   19 1    
    38   18   37 1    
    39   18   88 1    
    40   19   20 am   BACKBONE|DICT|INTERRES
    41   19   89 1    
    42   20   21 2    
    43   20   22 1    
    44   22   23 1    
    45   22   24 1    
    46   22   90 1    
    47   23   91 1    
    48   23   92 1    
    49   23   93 1    
    50   24   25 am   BACKBONE|DICT|INTERRES
    51   24   94 1    
    52   25   26 2    
    53   25   27 1    
    54   27   28 1    
    55   27   29 1    
    56   27   95 1    
    57   28   96 1    
    58   28   97 1    
    59   28   98 1    
    60   29   30 am   BACKBONE|DICT|INTERRES
    61   29   99 1    
    62   30   31 2    
    63   30   32 1    
    64   32   33 1    
    65   32   34 1    
    66   32  100 1    
    67   33  101 1    
    68   33  102 1    
    69   33  103 1    
    70   34   35 am   BACKBONE|DICT|INTERRES
    71   34  104 1    
    72   35   36 2    
    73   37   38 2    
    74   37   39 am   BACKBONE|DICT|INTERRES
    75   39   40 1    
    76   39  105 1    
    77   40   41 1    
    78   40   42 1    
    79   40  106 1    
    80   41  107 1    
    81   41  108 1    
    82   41  109 1    
    83   42   43 2    
    84   42   44 am   BACKBONE|DICT|INTERRES
    85   44   45 1    
    86   44  110 1    
    87   45   46 1    
    88   45   47 1    
    89   45  111 1    
    90   46  112 1    
    91   46  113 1    
    92   46  114 1    
    93   47   48 2    
    94   47   49 am   BACKBONE|DICT|INTERRES
    95   49   50 1    
    96   49  115 1    
    97   50   51 1    
    98   50   52 1    
    99   50  116 1    
   100   51  117 1    
   101   51  118 1    
   102   51  119 1    
   103   52   53 2    
   104   52   54 am   BACKBONE|DICT|INTERRES
   105   54   55 1    
   106   54  120 1    
   107   55   56 1    
   108   55   57 1    
   109   55  121 1    
   110   56  122 1    
   111   56  123 1    
   112   56  124 1    
   113   57   58 2    
   114   57   59 am   BACKBONE|DICT|INTERRES
   115   59   60 1    
   116   59  125 1    
   117   60   61 1    
   118   60   62 1    
   119   60  126 1    
   120   61  127 1    
   121   61  128 1    
   122   61  129 1    
   123   62   63 2    
   124   62   64 am   BACKBONE|DICT|INTERRES
   125   64   65 1    
   126   64  130 1    
   127   65   66 1    
   128   65   69 1    
   129   65  131 1    
   130   66   67 am   BACKBONE|DICT|INTERRES
   131   66   68 2    
   132   67  132 1    
   133   67  133 1    
   134   69   70 1    
   135   69  134 1    
   136   69  135 1    
   137   70   71 1    
   138   71  136 1    
   139   71  137 1    
@<TRIPOS>SUBSTRUCTURE
     1 UNK         1 GROUP             0       ****    0 ROOT    
