@<TRIPOS>MOLECULE
3R137
137   139    1
SMALL
USER_CHARGES


@<TRIPOS>ATOM
      1 CA         24.4067   -5.8383    0.6055 C.3       0 UNK        -0.2020 
      2 C          25.2015   -5.0802   -0.4468 C.2       0 UNK         0.4855 
      3 O          24.6861   -4.8335   -1.5378 O.2       0 UNK        -0.5197 
      4 N          26.4455   -4.6972   -0.1186 N.am      1 UNK        -0.4892 
      5 CA         27.4037   -3.9941   -0.9883 C.3       1 UNK         0.0835 
      6 C6         27.9399   -4.8887   -2.1427 C.3       12 UNK        -0.0855 
      7 S7         29.1416   -6.1488   -1.5932 S.3       12 UNK        -0.2931 
      8 C8         30.7035   -5.2164   -1.3518 C.3       12 UNK         0.0378 
      9 C9         30.9116   -4.0651   -2.3323 C.ar      12 UNK        -0.0802 
     10 C10        31.1432   -4.3131   -3.6895 C.ar      12 UNK        -0.0944 
     11 C11        31.2771   -3.2516   -4.5917 C.ar      12 UNK        -0.0787 
     12 C12        31.1827   -1.9350   -4.1276 C.ar      12 UNK        -0.0862 
     13 C13        30.9870   -1.6740   -2.7699 C.ar      12 UNK        -0.0733 
     14 C14        30.8544   -2.7433   -1.8784 C.ar      12 UNK        -0.0832 
     15 C15        30.9312   -0.2421   -2.2553 C.3       12 UNK         0.0240 
     16 S16        29.2828    0.1561   -1.5987 S.3       12 UNK        -0.2522 
     17 C17        28.6451    1.4413   -2.7231 C.3       12 UNK        -0.0967 
     18 CA         28.5871    1.0955   -4.2358 C.3       5 UNK         0.0660 
     19 N          27.9544   -0.1984   -4.5362 N.am      5 UNK        -0.4015 
     20 C          27.8788   -0.7281   -5.7694 C.2       4 UNK         0.4946 
     21 O          28.4283   -0.2326   -6.7501 O.2       4 UNK        -0.5353 
     22 CA         27.0174   -1.9817   -5.9754 C.3       4 UNK         0.0277 
     23 CB         27.8565   -3.2534   -5.7994 C.3       4 UNK        -0.1981 
     24 N          25.8757   -2.0031   -5.0630 N.am      4 UNK        -0.4209 
     25 C          24.6887   -1.4367   -5.3218 C.2       3 UNK         0.4942 
     26 O          24.4085   -0.8923   -6.3898 O.2       3 UNK        -0.5208 
     27 CA         23.6326   -1.4670   -4.2009 C.3       3 UNK         0.0250 
     28 CB         22.7387   -2.7096   -4.3378 C.3       3 UNK        -0.1990 
     29 N          24.2062   -1.4329   -2.8536 N.am      3 UNK        -0.4232 
     30 C          24.8852   -0.3961   -2.3429 C.2       2 UNK         0.4993 
     31 O          25.0743    0.6623   -2.9439 O.2       2 UNK        -0.5286 
     32 CA         25.5150   -0.5976   -0.9519 C.3       2 UNK         0.0209 
     33 CB         24.5101   -0.2253    0.1496 C.3       2 UNK        -0.1931 
     34 N          26.0425   -1.9471   -0.6952 N.am      2 UNK        -0.4546 
     35 C          26.8834   -2.6264   -1.4925 C.2       1 UNK         0.5154 
     36 O          27.2416   -2.2054   -2.5920 O.2       1 UNK        -0.5181 
     37 C          27.8949    2.2563   -4.9844 C.2       5 UNK         0.5014 
     38 O          28.5715    3.1730   -5.4503 O.2       5 UNK        -0.5248 
     39 N          26.5593    2.1893   -5.0787 N.am      6 UNK        -0.4434 
     40 CA         25.7084    3.1569   -5.7719 C.3       6 UNK         0.0363 
     41 CB         24.2790    3.0266   -5.2178 C.3       6 UNK        -0.1936 
     42 C          25.7017    3.0170   -7.3080 C.2       6 UNK         0.5081 
     43 O          25.1042    3.8672   -7.9706 O.2       6 UNK        -0.5248 
     44 N          26.3128    1.9586   -7.8601 N.am      7 UNK        -0.4718 
     45 CA         26.3500    1.6938   -9.3012 C.3       7 UNK         0.0273 
     46 CB         26.7657    0.2319   -9.5367 C.3       7 UNK        -0.1935 
     47 C          27.3029    2.6434  -10.0471 C.2       7 UNK         0.5018 
     48 O          28.2525    3.1638   -9.4581 O.2       7 UNK        -0.5186 
     49 N          27.0638    2.8058  -11.3558 N.am      8 UNK        -0.4240 
     50 CA         27.9230    3.5763  -12.2633 C.3       8 UNK         0.0235 
     51 CB         27.1861    3.8015  -13.5937 C.3       8 UNK        -0.2000 
     52 C          29.2928    2.9159  -12.5116 C.2       8 UNK         0.4941 
     53 O          30.2603    3.6232  -12.7937 O.2       8 UNK        -0.5273 
     54 N          29.3503    1.5836  -12.3879 N.am      9 UNK        -0.4262 
     55 CA         30.5556    0.7638  -12.5001 C.3       9 UNK         0.0264 
     56 CB         30.3699   -0.2486  -13.6470 C.3       9 UNK        -0.1955 
     57 C          30.8423    0.0899  -11.1476 C.2       9 UNK         0.5031 
     58 O          30.9714   -1.1343  -11.0805 O.2       9 UNK        -0.5390 
     59 N          30.9057    0.9030  -10.0846 N.am      10 UNK        -0.4204 
     60 CA         31.2332    0.4770   -8.7219 C.3       10 UNK         0.0237 
     61 CB         30.9594    1.6391   -7.7524 C.3       10 UNK        -0.1985 
     62 C          32.6919    0.0051   -8.5851 C.2       10 UNK         0.4970 
     63 O          33.5551    0.4214   -9.3624 O.2       10 UNK        -0.4914 
     64 N          32.9324   -0.8324   -7.5707 N.am      11 UNK        -0.4285 
     65 CA         34.2509   -1.3452   -7.1725 C.3       11 UNK         0.1007 
     66 C          35.2320   -0.2133   -6.7571 C.2       11 UNK         0.5703 
     67 N          36.5077   -0.3406   -7.0962 N.am      11 UNK        -0.7361 
     68 O          34.8540    0.7511   -6.0939 O.2       11 UNK        -0.4986 
     69 C69        34.1234   -2.3855   -6.0288 C.3       12 UNK        -0.0947 
     70 S70        33.2146   -3.8969   -6.5052 S.3       12 UNK        -0.2240 
     71 C71        31.4817   -3.5257   -6.0748 C.3       12 UNK         0.0194 
     72 H72        24.9759   -5.9826    1.5236 H         1 UNK         0.0906 
     73 H73        23.4960   -5.2933    0.8526 H         1 UNK         0.0906 
     74 H74        24.1236   -6.8194    0.2249 H         1 UNK         0.0906 
     75 H75        26.7993   -4.9325    0.7991 H         1 UNK         0.3140 
     76 H76        28.2524   -3.7320   -0.3552 H         1 UNK         0.1085 
     77 H77        28.4204   -4.3095   -2.9260 H         1 UNK         0.0836 
     78 H78        27.1154   -5.3953   -2.6458 H         1 UNK         0.0836 
     79 H79        31.5410   -5.9105   -1.4344 H         1 UNK         0.0731 
     80 H80        30.7243   -4.8465   -0.3256 H         1 UNK         0.0731 
     81 H81        31.1933   -5.3327   -4.0466 H         1 UNK         0.1312 
     82 H82        31.2707   -1.1106   -4.8208 H         1 UNK         0.1406 
     83 H83        30.6880   -2.5382   -0.8297 H         1 UNK         0.1631 
     84 H84        31.2211    0.4709   -3.0275 H         1 UNK         0.0717 
     85 H85        31.6610   -0.1278   -1.4528 H         1 UNK         0.0717 
     86 H86        27.6487    1.6991   -2.3584 H         1 UNK         0.0934 
     87 H87        29.2517    2.3367   -2.5723 H         1 UNK         0.0934 
     88 H88        29.6087    1.0399   -4.6148 H         1 UNK         0.0739 
     89 H89        27.5746   -0.7218   -3.7515 H         1 UNK         0.3093 
     90 H90        26.6491   -1.9702   -7.0034 H         1 UNK         0.0818 
     91 H91        28.4067   -3.2411   -4.8605 H         1 UNK         0.0819 
     92 H92        27.2398   -4.1519   -5.8221 H         1 UNK         0.0819 
     93 H93        28.5877   -3.3403   -6.6028 H         1 UNK         0.0819 
     94 H94        26.0616   -2.3519   -4.1279 H         1 UNK         0.3041 
     95 H95        23.0069   -0.5796   -4.3189 H         1 UNK         0.0784 
     96 H96        22.2853   -2.7579   -5.3289 H         1 UNK         0.0793 
     97 H97        23.3041   -3.6312   -4.1912 H         1 UNK         0.0793 
     98 H98        21.9259   -2.6958   -3.6113 H         1 UNK         0.0793 
     99 H99        24.1353   -2.2780   -2.3025 H         1 UNK         0.3024 
    100 H100       26.3586    0.0914   -0.8860 H         1 UNK         0.1171 
    101 H101       24.9777   -0.2358    1.1343 H         1 UNK         0.0786 
    102 H102       24.1136    0.7792   -0.0067 H         1 UNK         0.0786 
    103 H103       23.6623   -0.9111    0.1717 H         1 UNK         0.0786 
    104 H104       25.7825   -2.3755    0.1814 H         1 UNK         0.2977 
    105 H105       26.0792    1.4382   -4.5922 H         1 UNK         0.3127 
    106 H106       26.0723    4.1607   -5.5430 H         1 UNK         0.0770 
    107 H107       23.8622    2.0376   -5.4142 H         1 UNK         0.0814 
    108 H108       23.6110    3.7598   -5.6716 H         1 UNK         0.0814 
    109 H109       24.2542    3.1912   -4.1403 H         1 UNK         0.0814 
    110 H110       26.8456    1.3327   -7.2698 H         1 UNK         0.2983 
    111 H111       25.3407    1.8344   -9.6947 H         1 UNK         0.0947 
    112 H112       26.6615   -0.0429  -10.5867 H         1 UNK         0.0806 
    113 H113       26.1450   -0.4556   -8.9617 H         1 UNK         0.0806 
    114 H114       27.8065    0.0588   -9.2596 H         1 UNK         0.0806 
    115 H115       26.2599    2.3529  -11.7676 H         1 UNK         0.3000 
    116 H116       28.1090    4.5509  -11.8061 H         1 UNK         0.0850 
    117 H117       27.7922    4.3961  -14.2789 H         1 UNK         0.0810 
    118 H118       26.2498    4.3395  -13.4435 H         1 UNK         0.0810 
    119 H119       26.9575    2.8601  -14.0952 H         1 UNK         0.0810 
    120 H120       28.5056    1.0955  -12.1274 H         1 UNK         0.3040 
    121 H121       31.4244    1.3825  -12.7347 H         1 UNK         0.0766 
    122 H122       31.2622   -0.8631  -13.7745 H         1 UNK         0.0812 
    123 H123       30.1886    0.2577  -14.5952 H         1 UNK         0.0812 
    124 H124       29.5322   -0.9220  -13.4611 H         1 UNK         0.0812 
    125 H125       30.7767    1.8943  -10.2285 H         1 UNK         0.3205 
    126 H126       30.5743   -0.3554   -8.4648 H         1 UNK         0.0754 
    127 H127       31.5595    2.5179   -7.9913 H         1 UNK         0.0769 
    128 H128       31.1860    1.3577   -6.7234 H         1 UNK         0.0769 
    129 H129       29.9095    1.9317   -7.7733 H         1 UNK         0.0769 
    130 H130       32.1665   -1.0986   -6.9747 H         1 UNK         0.2981 
    131 H131       34.6712   -1.8476   -8.0461 H         1 UNK         0.0541 
    132 H132       36.8302   -1.1342   -7.6279 H         1 UNK         0.3459 
    133 H133       37.1609    0.3762   -6.8210 H         1 UNK         0.3459 
    134 H134       33.6794   -1.9376   -5.1404 H         1 UNK         0.0612 
    135 H135       35.1165   -2.7163   -5.7189 H         1 UNK         0.0612 
    136 H136       31.1208   -2.6897   -6.6737 H         1 UNK         0.0624 
    137 H137       30.8709   -4.3812   -6.3666 H         1 UNK         0.0624 
@<TRIPOS>BOND
     1    1    2 1    
     2    1   72 1    
     3    1   73 1    
     4    1   74 1    
     5    2    3 2    
     6    2    4 am   BACKBONE|DICT|INTERRES
     7    4    5 1    
     8    4   75 1    
     9    5    6 1    
    10    5   35 1    
    11    5   76 1    
    12    6    7 1    
    13    6   77 1    
    14    6   78 1    
    15    7    8 1    
    16    8    9 1    
    17    8   79 1    
    18    8   80 1    
    19    9   10 ar   
    20    9   14 ar   
    21   10   11 ar   
    22   10   81 1    
    23   11   12 ar   
    24   11   71 1    
    25   12   13 ar   
    26   12   82 1    
    27   13   14 ar   
    28   13   15 1    
    29   14   83 1    
    30   15   16 1    
    31   15   84 1    
    32   15   85 1    
    33   16   17 1    
    34   17   18 1    
    35   17   86 1    
    36   17   87 1    
    37   18   19 1    
    38   18   37 1    
    39   18   88 1    
    40   19   20 am   BACKBONE|DICT|INTERRES
    41   19   89 1    
    42   20   21 2    
    43   20   22 1    
    44   22   23 1    
    45   22   24 1    
    46   22   90 1    
    47   23   91 1    
    48   23   92 1    
    49   23   93 1    
    50   24   25 am   BACKBONE|DICT|INTERRES
    51   24   94 1    
    52   25   26 2    
    53   25   27 1    
    54   27   28 1    
    55   27   29 1    
    56   27   95 1    
    57   28   96 1    
    58   28   97 1    
    59   28   98 1    
    60   29   30 am   BACKBONE|DICT|INTERRES
    61   29   99 1    
    62   30   31 2    
    63   30   32 1    
    64   32   33 1    
    65   32   34 1    
    66   32  100 1    
    67   33  101 1    
    68   33  102 1    
    69   33  103 1    
    70   34   35 am   BACKBONE|DICT|INTERRES
    71   34  104 1    
    72   35   36 2    
    73   37   38 2    
    74   37   39 am   BACKBONE|DICT|INTERRES
    75   39   40 1    
    76   39  105 1    
    77   40   41 1    
    78   40   42 1    
    79   40  106 1    
    80   41  107 1    
    81   41  108 1    
    82   41  109 1    
    83   42   43 2    
    84   42   44 am   BACKBONE|DICT|INTERRES
    85   44   45 1    
    86   44  110 1    
    87   45   46 1    
    88   45   47 1    
    89   45  111 1    
    90   46  112 1    
    91   46  113 1    
    92   46  114 1    
    93   47   48 2    
    94   47   49 am   BACKBONE|DICT|INTERRES
    95   49   50 1    
    96   49  115 1    
    97   50   51 1    
    98   50   52 1    
    99   50  116 1    
   100   51  117 1    
   101   51  118 1    
   102   51  119 1    
   103   52   53 2    
   104   52   54 am   BACKBONE|DICT|INTERRES
   105   54   55 1    
   106   54  120 1    
   107   55   56 1    
   108   55   57 1    
   109   55  121 1    
   110   56  122 1    
   111   56  123 1    
   112   56  124 1    
   113   57   58 2    
   114   57   59 am   BACKBONE|DICT|INTERRES
   115   59   60 1    
   116   59  125 1    
   117   60   61 1    
   118   60   62 1    
   119   60  126 1    
   120   61  127 1    
   121   61  128 1    
   122   61  129 1    
   123   62   63 2    
   124   62   64 am   BACKBONE|DICT|INTERRES
   125   64   65 1    
   126   64  130 1    
   127   65   66 1    
   128   65   69 1    
   129   65  131 1    
   130   66   67 am   BACKBONE|DICT|INTERRES
   131   66   68 2    
   132   67  132 1    
   133   67  133 1    
   134   69   70 1    
   135   69  134 1    
   136   69  135 1    
   137   70   71 1    
   138   71  136 1    
   139   71  137 1    
@<TRIPOS>SUBSTRUCTURE
     1 UNK         1 GROUP             0       ****    0 ROOT    
