@<TRIPOS>MOLECULE
3R137
137   139    1
SMALL
USER_CHARGES


@<TRIPOS>ATOM
      1 CA         25.9904   -4.3926   -2.3587 C.3       0 UNK        -0.2020 
      2 C          25.7174   -4.6125   -0.8729 C.2       0 UNK         0.4855 
      3 O          24.7434   -5.2872   -0.5436 O.2       0 UNK        -0.5197 
      4 N          26.5260   -4.0978    0.0664 N.am      1 UNK        -0.4892 
      5 CA         27.6916   -3.2093   -0.0795 C.3       1 UNK         0.0835 
      6 C6         28.8568   -3.7834   -0.9399 C.3       12 UNK        -0.0855 
      7 S7         29.2933   -5.5108   -0.5326 S.3       12 UNK        -0.2931 
      8 C8         30.9844   -5.6532   -1.2085 C.3       12 UNK         0.0378 
      9 C9         31.1323   -5.0765   -2.6138 C.ar      12 UNK        -0.0802 
     10 C10        32.1670   -4.1747   -2.8864 C.ar      12 UNK        -0.0944 
     11 C11        32.2993   -3.6111   -4.1579 C.ar      12 UNK        -0.0787 
     12 C12        31.3963   -3.9596   -5.1620 C.ar      12 UNK        -0.0862 
     13 C13        30.3392   -4.8324   -4.8973 C.ar      12 UNK        -0.0733 
     14 C14        30.2296   -5.4136   -3.6307 C.ar      12 UNK        -0.0832 
     15 C15        29.2905   -5.1014   -5.9671 C.3       12 UNK         0.0240 
     16 S16        27.7831   -4.1109   -5.6880 S.3       12 UNK        -0.2522 
     17 C17        28.4018   -2.3946   -5.8090 C.3       12 UNK        -0.0967 
     18 CA         27.6051   -1.5307   -6.8133 C.3       5 UNK         0.0660 
     19 N          26.1821   -1.4436   -6.4716 N.am      5 UNK        -0.4015 
     20 C          25.2268   -1.0482   -7.3243 C.2       4 UNK         0.4946 
     21 O          25.4486   -0.7308   -8.4917 O.2       4 UNK        -0.5353 
     22 CA         23.7887   -0.9453   -6.7853 C.3       4 UNK         0.0277 
     23 CB         23.0649   -2.2927   -6.9336 C.3       4 UNK        -0.1981 
     24 N          23.7096   -0.4993   -5.3923 N.am      4 UNK        -0.4209 
     25 C          24.1735    0.6696   -4.9285 C.2       3 UNK         0.4942 
     26 O          24.7004    1.5232   -5.6421 O.2       3 UNK        -0.5208 
     27 CA         24.0951    0.9122   -3.4081 C.3       3 UNK         0.0250 
     28 CB         23.1774   -0.0836   -2.6616 C.3       3 UNK        -0.1990 
     29 N          25.4237    0.9304   -2.7791 N.am      3 UNK        -0.4232 
     30 C          26.3707   -0.0157   -2.8770 C.2       2 UNK         0.4993 
     31 O          26.2741   -1.0040   -3.6068 O.2       2 UNK        -0.5286 
     32 CA         27.6544    0.1478   -2.0379 C.3       2 UNK         0.0209 
     33 CB         27.6271    1.3266   -1.0379 C.3       2 UNK        -0.1931 
     34 N          27.9971   -1.1144   -1.3662 N.am      2 UNK        -0.4546 
     35 C          27.2354   -1.7880   -0.4874 C.2       1 UNK         0.5154 
     36 O          26.1938   -1.3372   -0.0033 O.2       1 UNK        -0.5181 
     37 C          28.2413   -0.1313   -6.9434 C.2       5 UNK         0.5014 
     38 O          29.1438    0.0518   -7.7637 O.2       5 UNK        -0.5248 
     39 N          27.7534    0.8366   -6.1528 N.am      6 UNK        -0.4434 
     40 CA         28.1507    2.2418   -6.2425 C.3       6 UNK         0.0363 
     41 CB         27.7694    2.9913   -4.9563 C.3       6 UNK        -0.1936 
     42 C          27.5481    2.9127   -7.4857 C.2       6 UNK         0.5081 
     43 O          28.2610    3.6349   -8.1799 O.2       6 UNK        -0.5248 
     44 N          26.2745    2.6156   -7.7848 N.am      7 UNK        -0.4718 
     45 CA         25.5762    3.0495   -9.0009 C.3       7 UNK         0.0273 
     46 CB         24.0927    2.6598   -8.9118 C.3       7 UNK        -0.1935 
     47 C          26.2112    2.4943  -10.2893 C.2       7 UNK         0.5018 
     48 O          26.3103    3.2222  -11.2773 O.2       7 UNK        -0.5186 
     49 N          26.6741    1.2366  -10.2399 N.am      8 UNK        -0.4240 
     50 CA         27.4620    0.5842  -11.2911 C.3       8 UNK         0.0235 
     51 CB         27.4454   -0.9358  -11.0570 C.3       8 UNK        -0.2000 
     52 C          28.9159    1.0904  -11.3898 C.2       8 UNK         0.4941 
     53 O          29.6030    0.7257  -12.3447 O.2       8 UNK        -0.5273 
     54 N          29.3614    1.8980  -10.4144 N.am      9 UNK        -0.4262 
     55 CA         30.6987    2.4817  -10.2721 C.3       9 UNK         0.0264 
     56 CB         30.9912    3.4789  -11.4140 C.3       9 UNK        -0.1955 
     57 C          31.8093    1.4302  -10.0850 C.2       9 UNK         0.5031 
     58 O          32.9238    1.6267  -10.5741 O.2       9 UNK        -0.5390 
     59 N          31.5019    0.3416   -9.3634 N.am      10 UNK        -0.4204 
     60 CA         32.4667   -0.7062   -9.0160 C.3       10 UNK         0.0237 
     61 CB         31.7172   -1.9749   -8.5822 C.3       10 UNK        -0.1985 
     62 C          33.4474   -0.2471   -7.9232 C.2       10 UNK         0.4970 
     63 O          34.6343   -0.5653   -8.0018 O.2       10 UNK        -0.4914 
     64 N          32.9341    0.5070   -6.9450 N.am      11 UNK        -0.4285 
     65 CA         33.6918    1.1167   -5.8416 C.3       11 UNK         0.1007 
     66 C          32.9985    2.3797   -5.2508 C.2       11 UNK         0.5703 
     67 N          32.0459    2.9966   -5.9428 N.am      11 UNK        -0.7361 
     68 O          33.3406    2.8301   -4.1600 O.2       11 UNK        -0.4986 
     69 C69        34.1565    0.0865   -4.7707 C.3       12 UNK        -0.0947 
     70 S70        32.7989   -0.9121   -4.0704 S.3       12 UNK        -0.2240 
     71 C71        33.3866   -2.5916   -4.4461 C.3       12 UNK         0.0194 
     72 H72        26.3088   -3.3774   -2.5789 H         1 UNK         0.0906 
     73 H73        26.7575   -5.0830   -2.7080 H         1 UNK         0.0906 
     74 H74        25.0886   -4.5775   -2.9417 H         1 UNK         0.0906 
     75 H75        26.2750   -4.2735    1.0291 H         1 UNK         0.3140 
     76 H76        28.0833   -3.0930    0.9325 H         1 UNK         0.1085 
     77 H77        28.6244   -3.7364   -2.0042 H         1 UNK         0.0836 
     78 H78        29.7528   -3.1755   -0.7993 H         1 UNK         0.0836 
     79 H79        31.2711   -6.7054   -1.2254 H         1 UNK         0.0731 
     80 H80        31.6692   -5.1592   -0.5174 H         1 UNK         0.0731 
     81 H81        32.8607   -3.8940   -2.1055 H         1 UNK         0.1312 
     82 H82        31.4947   -3.5157   -6.1410 H         1 UNK         0.1406 
     83 H83        29.4125   -6.0909   -3.4218 H         1 UNK         0.1631 
     84 H84        29.0260   -6.1597   -5.9636 H         1 UNK         0.0717 
     85 H85        29.6851   -4.8867   -6.9617 H         1 UNK         0.0717 
     86 H86        28.3870   -1.9568   -4.8098 H         1 UNK         0.0934 
     87 H87        29.4474   -2.4102   -6.1090 H         1 UNK         0.0934 
     88 H88        27.6831   -2.0073   -7.7927 H         1 UNK         0.0739 
     89 H89        25.9465   -1.6250   -5.5004 H         1 UNK         0.3093 
     90 H90        23.2628   -0.2076   -7.3940 H         1 UNK         0.0818 
     91 H91        22.0165   -2.2153   -6.6448 H         1 UNK         0.0819 
     92 H92        23.0889   -2.6354   -7.9691 H         1 UNK         0.0819 
     93 H93        23.5267   -3.0698   -6.3228 H         1 UNK         0.0819 
     94 H94        23.3212   -1.1515   -4.7267 H         1 UNK         0.3041 
     95 H95        23.6735    1.9107   -3.2833 H         1 UNK         0.0784 
     96 H96        22.1726   -0.0952   -3.0864 H         1 UNK         0.0793 
     97 H97        23.5661   -1.1027   -2.6838 H         1 UNK         0.0793 
     98 H98        23.0738    0.1980   -1.6135 H         1 UNK         0.0793 
     99 H99        25.6077    1.7195   -2.1760 H         1 UNK         0.3024 
    100 H100       28.4546    0.3412   -2.7545 H         1 UNK         0.1171 
    101 H101       28.5572    1.3773   -0.4715 H         1 UNK         0.0786 
    102 H102       27.5207    2.2825   -1.5523 H         1 UNK         0.0786 
    103 H103       26.8111    1.2420   -0.3193 H         1 UNK         0.0786 
    104 H104       28.8280   -1.5701   -1.7153 H         1 UNK         0.2977 
    105 H105       26.9702    0.6184   -5.5527 H         1 UNK         0.3127 
    106 H106       29.2375    2.2833   -6.3393 H         1 UNK         0.0770 
    107 H107       26.6949    2.9795   -4.7752 H         1 UNK         0.0814 
    108 H108       28.0751    4.0368   -5.0143 H         1 UNK         0.0814 
    109 H109       28.2645    2.5610   -4.0865 H         1 UNK         0.0814 
    110 H110       25.7358    2.0674   -7.1175 H         1 UNK         0.2983 
    111 H111       25.6414    4.1388   -9.0455 H         1 UNK         0.0947 
    112 H112       23.5394    3.0351   -9.7737 H         1 UNK         0.0806 
    113 H113       23.6251    3.0752   -8.0188 H         1 UNK         0.0806 
    114 H114       23.9608    1.5783   -8.8867 H         1 UNK         0.0806 
    115 H115       26.4541    0.6720   -9.4236 H         1 UNK         0.3000 
    116 H116       26.9833    0.7880  -12.2512 H         1 UNK         0.0850 
    117 H117       27.9779   -1.4621  -11.8502 H         1 UNK         0.0810 
    118 H118       26.4270   -1.3244  -11.0394 H         1 UNK         0.0810 
    119 H119       27.9223   -1.2007  -10.1130 H         1 UNK         0.0810 
    120 H120       28.7126    2.1482   -9.6778 H         1 UNK         0.3040 
    121 H121       30.6759    3.0539   -9.3439 H         1 UNK         0.0766 
    122 H122       31.0963    2.9755  -12.3755 H         1 UNK         0.0812 
    123 H123       31.9180    4.0236  -11.2303 H         1 UNK         0.0812 
    124 H124       30.1957    4.2183  -11.5068 H         1 UNK         0.0812 
    125 H125       30.5675    0.2569   -8.9650 H         1 UNK         0.3205 
    126 H126       33.0492   -0.9476   -9.9079 H         1 UNK         0.0754 
    127 H127       32.4153   -2.7822   -8.3571 H         1 UNK         0.0769 
    128 H128       31.0503   -2.3303   -9.3681 H         1 UNK         0.0769 
    129 H129       31.1177   -1.7979   -7.6903 H         1 UNK         0.0769 
    130 H130       31.9397    0.6779   -6.9327 H         1 UNK         0.2981 
    131 H131       34.6010    1.5254   -6.2862 H         1 UNK         0.0541 
    132 H132       31.8139    2.7185   -6.8799 H         1 UNK         0.3459 
    133 H133       31.6231    3.8203   -5.5451 H         1 UNK         0.3459 
    134 H134       34.6788    0.5818   -3.9507 H         1 UNK         0.0612 
    135 H135       34.8984   -0.5785   -5.2144 H         1 UNK         0.0612 
    136 H136       33.6832   -2.6491   -5.4950 H         1 UNK         0.0624 
    137 H137       34.2781   -2.8069   -3.8551 H         1 UNK         0.0624 
@<TRIPOS>BOND
     1    1    2 1    
     2    1   72 1    
     3    1   73 1    
     4    1   74 1    
     5    2    3 2    
     6    2    4 am   BACKBONE|DICT|INTERRES
     7    4    5 1    
     8    4   75 1    
     9    5    6 1    
    10    5   35 1    
    11    5   76 1    
    12    6    7 1    
    13    6   77 1    
    14    6   78 1    
    15    7    8 1    
    16    8    9 1    
    17    8   79 1    
    18    8   80 1    
    19    9   10 ar   
    20    9   14 ar   
    21   10   11 ar   
    22   10   81 1    
    23   11   12 ar   
    24   11   71 1    
    25   12   13 ar   
    26   12   82 1    
    27   13   14 ar   
    28   13   15 1    
    29   14   83 1    
    30   15   16 1    
    31   15   84 1    
    32   15   85 1    
    33   16   17 1    
    34   17   18 1    
    35   17   86 1    
    36   17   87 1    
    37   18   19 1    
    38   18   37 1    
    39   18   88 1    
    40   19   20 am   BACKBONE|DICT|INTERRES
    41   19   89 1    
    42   20   21 2    
    43   20   22 1    
    44   22   23 1    
    45   22   24 1    
    46   22   90 1    
    47   23   91 1    
    48   23   92 1    
    49   23   93 1    
    50   24   25 am   BACKBONE|DICT|INTERRES
    51   24   94 1    
    52   25   26 2    
    53   25   27 1    
    54   27   28 1    
    55   27   29 1    
    56   27   95 1    
    57   28   96 1    
    58   28   97 1    
    59   28   98 1    
    60   29   30 am   BACKBONE|DICT|INTERRES
    61   29   99 1    
    62   30   31 2    
    63   30   32 1    
    64   32   33 1    
    65   32   34 1    
    66   32  100 1    
    67   33  101 1    
    68   33  102 1    
    69   33  103 1    
    70   34   35 am   BACKBONE|DICT|INTERRES
    71   34  104 1    
    72   35   36 2    
    73   37   38 2    
    74   37   39 am   BACKBONE|DICT|INTERRES
    75   39   40 1    
    76   39  105 1    
    77   40   41 1    
    78   40   42 1    
    79   40  106 1    
    80   41  107 1    
    81   41  108 1    
    82   41  109 1    
    83   42   43 2    
    84   42   44 am   BACKBONE|DICT|INTERRES
    85   44   45 1    
    86   44  110 1    
    87   45   46 1    
    88   45   47 1    
    89   45  111 1    
    90   46  112 1    
    91   46  113 1    
    92   46  114 1    
    93   47   48 2    
    94   47   49 am   BACKBONE|DICT|INTERRES
    95   49   50 1    
    96   49  115 1    
    97   50   51 1    
    98   50   52 1    
    99   50  116 1    
   100   51  117 1    
   101   51  118 1    
   102   51  119 1    
   103   52   53 2    
   104   52   54 am   BACKBONE|DICT|INTERRES
   105   54   55 1    
   106   54  120 1    
   107   55   56 1    
   108   55   57 1    
   109   55  121 1    
   110   56  122 1    
   111   56  123 1    
   112   56  124 1    
   113   57   58 2    
   114   57   59 am   BACKBONE|DICT|INTERRES
   115   59   60 1    
   116   59  125 1    
   117   60   61 1    
   118   60   62 1    
   119   60  126 1    
   120   61  127 1    
   121   61  128 1    
   122   61  129 1    
   123   62   63 2    
   124   62   64 am   BACKBONE|DICT|INTERRES
   125   64   65 1    
   126   64  130 1    
   127   65   66 1    
   128   65   69 1    
   129   65  131 1    
   130   66   67 am   BACKBONE|DICT|INTERRES
   131   66   68 2    
   132   67  132 1    
   133   67  133 1    
   134   69   70 1    
   135   69  134 1    
   136   69  135 1    
   137   70   71 1    
   138   71  136 1    
   139   71  137 1    
@<TRIPOS>SUBSTRUCTURE
     1 UNK         1 GROUP             0       ****    0 ROOT    
