@<TRIPOS>MOLECULE
3R137
137   139    1
SMALL
USER_CHARGES


@<TRIPOS>ATOM
      1 CA         29.9884    1.0619   -1.9252 C.3       0 UNK        -0.2020 
      2 C          29.2372   -0.2454   -2.1254 C.2       0 UNK         0.4855 
      3 O          28.4866   -0.3790   -3.0878 O.2       0 UNK        -0.5197 
      4 N          29.4368   -1.2178   -1.2282 N.am      1 UNK        -0.4892 
      5 CA         28.8075   -2.5404   -1.2857 C.3       1 UNK         0.0835 
      6 C6         29.4661   -3.4992   -0.2610 C.3       12 UNK        -0.0855 
      7 S7         29.1529   -5.2633   -0.6095 S.3       12 UNK        -0.2931 
      8 C8         30.6208   -5.7185   -1.5914 C.3       12 UNK         0.0378 
      9 C9         30.6150   -5.0440   -2.9557 C.ar      12 UNK        -0.0802 
     10 C10        31.5719   -4.0731   -3.2764 C.ar      12 UNK        -0.0944 
     11 C11        31.5484   -3.4394   -4.5239 C.ar      12 UNK        -0.0787 
     12 C12        30.5600   -3.7858   -5.4469 C.ar      12 UNK        -0.0862 
     13 C13        29.5796   -4.7279   -5.1258 C.ar      12 UNK        -0.0733 
     14 C14        29.6273   -5.3743   -3.8892 C.ar      12 UNK        -0.0832 
     15 C15        28.4330   -4.9907   -6.0918 C.3       12 UNK         0.0240 
     16 S16        26.8690   -4.2455   -5.5130 S.3       12 UNK        -0.2522 
     17 C17        27.3302   -2.4968   -5.2753 C.3       12 UNK        -0.0967 
     18 CA         26.9224   -1.5998   -6.4658 C.3       5 UNK         0.0660 
     19 N          25.5191   -1.1874   -6.3479 N.am      5 UNK        -0.4015 
     20 C          24.8919   -0.2489   -7.0727 C.2       4 UNK         0.4946 
     21 O          25.3728    0.2874   -8.0732 O.2       4 UNK        -0.5353 
     22 CA         23.5284    0.2383   -6.5493 C.3       4 UNK         0.0277 
     23 CB         22.3876   -0.4286   -7.3331 C.3       4 UNK        -0.1981 
     24 N          23.3143    0.0337   -5.1092 N.am      4 UNK        -0.4209 
     25 C          24.0974    0.4749   -4.1104 C.2       3 UNK         0.4942 
     26 O          25.1273    1.1265   -4.2838 O.2       3 UNK        -0.5208 
     27 CA         23.6784    0.1064   -2.6742 C.3       3 UNK         0.0250 
     28 CB         22.1512   -0.0631   -2.5096 C.3       3 UNK        -0.1990 
     29 N          24.3786   -1.0742   -2.1480 N.am      3 UNK        -0.4232 
     30 C          24.4375   -2.3005   -2.6881 C.2       2 UNK         0.4993 
     31 O          24.0111   -2.5812   -3.8103 O.2       2 UNK        -0.5286 
     32 CA         25.0849   -3.3957   -1.8205 C.3       2 UNK         0.0209 
     33 CB         24.6691   -4.8122   -2.2593 C.3       2 UNK        -0.1931 
     34 N          26.5436   -3.3066   -1.8442 N.am      2 UNK        -0.4546 
     35 C          27.2737   -2.4575   -1.1108 C.2       1 UNK         0.5154 
     36 O          26.7828   -1.6543   -0.3114 O.2       1 UNK        -0.5181 
     37 C          27.9046   -0.4128   -6.5710 C.2       5 UNK         0.5014 
     38 O          28.8389   -0.4817   -7.3717 O.2       5 UNK        -0.5248 
     39 N          27.6575    0.6568   -5.7993 N.am      6 UNK        -0.4434 
     40 CA         28.4868    1.8597   -5.7468 C.3       6 UNK         0.0363 
     41 CB         27.9624    2.7960   -4.6472 C.3       6 UNK        -0.1936 
     42 C          28.5574    2.6098   -7.0839 C.2       6 UNK         0.5081 
     43 O          29.5838    3.2269   -7.3663 O.2       6 UNK        -0.5248 
     44 N          27.4807    2.5323   -7.8763 N.am      7 UNK        -0.4718 
     45 CA         27.4086    3.0737   -9.2296 C.3       7 UNK         0.0273 
     46 CB         25.9773    3.5594   -9.5114 C.3       7 UNK        -0.1935 
     47 C          27.8394    2.0229  -10.2612 C.2       7 UNK         0.5018 
     48 O          28.6114    2.3512  -11.1613 O.2       7 UNK        -0.5186 
     49 N          27.3439    0.7844  -10.1118 N.am      8 UNK        -0.4240 
     50 CA         27.5593   -0.3234  -11.0479 C.3       8 UNK         0.0235 
     51 CB         26.6666   -1.5122  -10.6581 C.3       8 UNK        -0.2000 
     52 C          29.0275   -0.7626  -11.1720 C.2       8 UNK         0.4941 
     53 O          29.4995   -0.9623  -12.2920 O.2       8 UNK        -0.5273 
     54 N          29.7238   -0.8909  -10.0346 N.am      9 UNK        -0.4262 
     55 CA         31.1495   -1.2310   -9.9748 C.3       9 UNK         0.0264 
     56 CB         31.3838   -2.1793   -8.7895 C.3       9 UNK        -0.1955 
     57 C          32.0432    0.0138   -9.8388 C.2       9 UNK         0.5031 
     58 O          33.2663   -0.1281   -9.8627 O.2       9 UNK        -0.5390 
     59 N          31.4291    1.1949   -9.6683 N.am      10 UNK        -0.4204 
     60 CA         32.0480    2.5070   -9.4406 C.3       10 UNK         0.0237 
     61 CB         32.8950    2.9382  -10.6576 C.3       10 UNK        -0.1985 
     62 C          32.8239    2.6189   -8.1091 C.2       10 UNK         0.4970 
     63 O          33.6370    3.5343   -7.9673 O.2       10 UNK        -0.4914 
     64 N          32.5670    1.7099   -7.1565 N.am      11 UNK        -0.4285 
     65 CA         33.2035    1.6858   -5.8301 C.3       11 UNK         0.1007 
     66 C          32.5806    2.6534   -4.7812 C.2       11 UNK         0.5703 
     67 N          31.5375    3.4106   -5.1002 N.am      11 UNK        -0.7361 
     68 O          33.0727    2.7406   -3.6588 O.2       11 UNK        -0.4986 
     69 C69        33.4005    0.2391   -5.3001 C.3       12 UNK        -0.0947 
     70 S70        31.8710   -0.7149   -5.0169 S.3       12 UNK        -0.2240 
     71 C71        32.5881   -2.3868   -4.8854 C.3       12 UNK         0.0194 
     72 H72        30.7712    0.9714   -1.1725 H         1 UNK         0.0906 
     73 H73        30.4559    1.3690   -2.8605 H         1 UNK         0.0906 
     74 H74        29.3007    1.8471   -1.6133 H         1 UNK         0.0906 
     75 H75        30.0312   -1.0439   -0.4308 H         1 UNK         0.3140 
     76 H76        29.0022   -2.9178   -2.2915 H         1 UNK         0.1085 
     77 H77        30.5470   -3.3487   -0.2468 H         1 UNK         0.0836 
     78 H78        29.1265   -3.2756    0.7524 H         1 UNK         0.0836 
     79 H79        31.5257   -5.4733   -1.0331 H         1 UNK         0.0731 
     80 H80        30.6311   -6.8006   -1.7299 H         1 UNK         0.0731 
     81 H81        32.3308   -3.8065   -2.5536 H         1 UNK         0.1312 
     82 H82        30.5216   -3.2809   -6.3994 H         1 UNK         0.1406 
     83 H83        28.8689   -6.1029   -3.6350 H         1 UNK         0.1631 
     84 H84        28.2935   -6.0662   -6.2090 H         1 UNK         0.0717 
     85 H85        28.6652   -4.6006   -7.0841 H         1 UNK         0.0717 
     86 H86        28.3941   -2.4219   -5.0596 H         1 UNK         0.0934 
     87 H87        26.8582   -2.1377   -4.3610 H         1 UNK         0.0934 
     88 H88        27.0180   -2.1693   -7.3906 H         1 UNK         0.0739 
     89 H89        25.0130   -1.5844   -5.5644 H         1 UNK         0.3093 
     90 H90        23.4866    1.3142   -6.7301 H         1 UNK         0.0818 
     91 H91        21.4183   -0.0140   -7.0556 H         1 UNK         0.0819 
     92 H92        22.5084   -0.2732   -8.4063 H         1 UNK         0.0819 
     93 H93        22.3560   -1.5054   -7.1611 H         1 UNK         0.0819 
     94 H94        22.5224   -0.5387   -4.8536 H         1 UNK         0.3041 
     95 H95        23.9816    0.9472   -2.0482 H         1 UNK         0.0784 
     96 H96        21.6133    0.7993   -2.9063 H         1 UNK         0.0793 
     97 H97        21.7728   -0.9524   -3.0149 H         1 UNK         0.0793 
     98 H98        21.8817   -0.1485   -1.4568 H         1 UNK         0.0793 
     99 H99        24.8669   -0.9366   -1.2704 H         1 UNK         0.3024 
    100 H100       24.7346   -3.2563   -0.7948 H         1 UNK         0.1171 
    101 H101       25.0787   -5.5702   -1.5913 H         1 UNK         0.0786 
    102 H102       25.0051   -5.0414   -3.2709 H         1 UNK         0.0786 
    103 H103       23.5838   -4.9208   -2.2455 H         1 UNK         0.0786 
    104 H104       27.0167   -3.9294   -2.4838 H         1 UNK         0.2977 
    105 H105       26.8587    0.6387   -5.1710 H         1 UNK         0.3127 
    106 H106       29.4965    1.5403   -5.4826 H         1 UNK         0.0770 
    107 H107       26.9614    3.1636   -4.8764 H         1 UNK         0.0814 
    108 H108       28.6109    3.6647   -4.5298 H         1 UNK         0.0814 
    109 H109       27.9153    2.2910   -3.6833 H         1 UNK         0.0814 
    110 H110       26.7050    1.9542   -7.5763 H         1 UNK         0.2983 
    111 H111       28.0805    3.9306   -9.3199 H         1 UNK         0.0947 
    112 H112       25.8971    3.9717  -10.5182 H         1 UNK         0.0806 
    113 H113       25.6834    4.3454   -8.8156 H         1 UNK         0.0806 
    114 H114       25.2483    2.7520   -9.4301 H         1 UNK         0.0806 
    115 H115       26.6969    0.6097   -9.3452 H         1 UNK         0.3000 
    116 H116       27.2408    0.0241  -12.0331 H         1 UNK         0.0850 
    117 H117       26.7664   -2.3272  -11.3762 H         1 UNK         0.0810 
    118 H118       25.6143   -1.2280  -10.6337 H         1 UNK         0.0810 
    119 H119       26.9282   -1.9082   -9.6779 H         1 UNK         0.0810 
    120 H120       29.2652   -0.7200   -9.1393 H         1 UNK         0.3040 
    121 H121       31.4497   -1.7515  -10.8866 H         1 UNK         0.0766 
    122 H122       32.4158   -2.5317   -8.7660 H         1 UNK         0.0812 
    123 H123       31.1919   -1.6774   -7.8415 H         1 UNK         0.0812 
    124 H124       30.7410   -3.0575   -8.8486 H         1 UNK         0.0812 
    125 H125       30.4187    1.1928   -9.6856 H         1 UNK         0.3205 
    126 H126       31.2221    3.2146   -9.3659 H         1 UNK         0.0754 
    127 H127       33.2137    3.9772  -10.5652 H         1 UNK         0.0769 
    128 H128       32.3259    2.8583  -11.5839 H         1 UNK         0.0769 
    129 H129       33.7952    2.3320  -10.7622 H         1 UNK         0.0769 
    130 H130       31.8650    1.0053   -7.3245 H         1 UNK         0.2981 
    131 H131       34.2153    2.0729   -5.9643 H         1 UNK         0.0541 
    132 H132       31.1088    3.3564   -6.0167 H         1 UNK         0.3459 
    133 H133       31.1728    4.0482   -4.4121 H         1 UNK         0.3459 
    134 H134       33.9710    0.2504   -4.3697 H         1 UNK         0.0612 
    135 H135       34.0155   -0.3133   -6.0124 H         1 UNK         0.0612 
    136 H136       33.3881   -2.3722   -4.1436 H         1 UNK         0.0624 
    137 H137       33.0515   -2.6528   -5.8366 H         1 UNK         0.0624 
@<TRIPOS>BOND
     1    1    2 1    
     2    1   72 1    
     3    1   73 1    
     4    1   74 1    
     5    2    3 2    
     6    2    4 am   BACKBONE|DICT|INTERRES
     7    4    5 1    
     8    4   75 1    
     9    5    6 1    
    10    5   35 1    
    11    5   76 1    
    12    6    7 1    
    13    6   77 1    
    14    6   78 1    
    15    7    8 1    
    16    8    9 1    
    17    8   79 1    
    18    8   80 1    
    19    9   10 ar   
    20    9   14 ar   
    21   10   11 ar   
    22   10   81 1    
    23   11   12 ar   
    24   11   71 1    
    25   12   13 ar   
    26   12   82 1    
    27   13   14 ar   
    28   13   15 1    
    29   14   83 1    
    30   15   16 1    
    31   15   84 1    
    32   15   85 1    
    33   16   17 1    
    34   17   18 1    
    35   17   86 1    
    36   17   87 1    
    37   18   19 1    
    38   18   37 1    
    39   18   88 1    
    40   19   20 am   BACKBONE|DICT|INTERRES
    41   19   89 1    
    42   20   21 2    
    43   20   22 1    
    44   22   23 1    
    45   22   24 1    
    46   22   90 1    
    47   23   91 1    
    48   23   92 1    
    49   23   93 1    
    50   24   25 am   BACKBONE|DICT|INTERRES
    51   24   94 1    
    52   25   26 2    
    53   25   27 1    
    54   27   28 1    
    55   27   29 1    
    56   27   95 1    
    57   28   96 1    
    58   28   97 1    
    59   28   98 1    
    60   29   30 am   BACKBONE|DICT|INTERRES
    61   29   99 1    
    62   30   31 2    
    63   30   32 1    
    64   32   33 1    
    65   32   34 1    
    66   32  100 1    
    67   33  101 1    
    68   33  102 1    
    69   33  103 1    
    70   34   35 am   BACKBONE|DICT|INTERRES
    71   34  104 1    
    72   35   36 2    
    73   37   38 2    
    74   37   39 am   BACKBONE|DICT|INTERRES
    75   39   40 1    
    76   39  105 1    
    77   40   41 1    
    78   40   42 1    
    79   40  106 1    
    80   41  107 1    
    81   41  108 1    
    82   41  109 1    
    83   42   43 2    
    84   42   44 am   BACKBONE|DICT|INTERRES
    85   44   45 1    
    86   44  110 1    
    87   45   46 1    
    88   45   47 1    
    89   45  111 1    
    90   46  112 1    
    91   46  113 1    
    92   46  114 1    
    93   47   48 2    
    94   47   49 am   BACKBONE|DICT|INTERRES
    95   49   50 1    
    96   49  115 1    
    97   50   51 1    
    98   50   52 1    
    99   50  116 1    
   100   51  117 1    
   101   51  118 1    
   102   51  119 1    
   103   52   53 2    
   104   52   54 am   BACKBONE|DICT|INTERRES
   105   54   55 1    
   106   54  120 1    
   107   55   56 1    
   108   55   57 1    
   109   55  121 1    
   110   56  122 1    
   111   56  123 1    
   112   56  124 1    
   113   57   58 2    
   114   57   59 am   BACKBONE|DICT|INTERRES
   115   59   60 1    
   116   59  125 1    
   117   60   61 1    
   118   60   62 1    
   119   60  126 1    
   120   61  127 1    
   121   61  128 1    
   122   61  129 1    
   123   62   63 2    
   124   62   64 am   BACKBONE|DICT|INTERRES
   125   64   65 1    
   126   64  130 1    
   127   65   66 1    
   128   65   69 1    
   129   65  131 1    
   130   66   67 am   BACKBONE|DICT|INTERRES
   131   66   68 2    
   132   67  132 1    
   133   67  133 1    
   134   69   70 1    
   135   69  134 1    
   136   69  135 1    
   137   70   71 1    
   138   71  136 1    
   139   71  137 1    
@<TRIPOS>SUBSTRUCTURE
     1 UNK         1 GROUP             0       ****    0 ROOT    
