@<TRIPOS>MOLECULE
3R137
137   139    1
SMALL
USER_CHARGES


@<TRIPOS>ATOM
      1 CA         24.6883   -0.9452    1.1276 C.3       0 UNK        -0.2020 
      2 C          26.0499   -1.1543    0.4831 C.2       0 UNK         0.4855 
      3 O          26.8281   -0.2050    0.3812 O.2       0 UNK        -0.5197 
      4 N          26.3405   -2.3867    0.0408 N.am      1 UNK        -0.4892 
      5 CA         27.5758   -2.7821   -0.6490 C.3       1 UNK         0.0835 
      6 C6         27.5763   -4.2989   -0.9680 C.3       12 UNK        -0.0855 
      7 S7         29.2575   -4.9841   -1.1609 S.3       12 UNK        -0.2931 
      8 C8         29.2090   -5.6907   -2.8412 C.3       12 UNK         0.0378 
      9 C9         29.6375   -4.6799   -3.8946 C.ar      12 UNK        -0.0802 
     10 C10        30.9936   -4.5211   -4.1976 C.ar      12 UNK        -0.0944 
     11 C11        31.4027   -3.5996   -5.1661 C.ar      12 UNK        -0.0787 
     12 C12        30.4435   -2.8350   -5.8341 C.ar      12 UNK        -0.0862 
     13 C13        29.0898   -2.9614   -5.5174 C.ar      12 UNK        -0.0733 
     14 C14        28.6881   -3.9032   -4.5657 C.ar      12 UNK        -0.0832 
     15 C15        28.0827   -2.0255   -6.1617 C.3       12 UNK         0.0240 
     16 S16        27.3747   -2.7335   -7.6702 S.3       12 UNK        -0.2522 
     17 C17        25.7836   -3.3760   -7.0440 C.3       12 UNK        -0.0967 
     18 CA         24.5848   -2.3765   -7.0319 C.3       5 UNK         0.0660 
     19 N          24.4743   -1.5994   -5.7964 N.am      5 UNK        -0.4015 
     20 C          24.0025   -2.0726   -4.6382 C.2       4 UNK         0.4946 
     21 O          23.7851   -3.2693   -4.4356 O.2       4 UNK        -0.5353 
     22 CA         23.6681   -1.0389   -3.5492 C.3       4 UNK         0.0277 
     23 CB         23.1916   -1.6887   -2.2349 C.3       4 UNK        -0.1981 
     24 N          24.8028   -0.1603   -3.2590 N.am      4 UNK        -0.4209 
     25 C          24.7127    1.1702   -3.1046 C.2       3 UNK         0.4942 
     26 O          23.6824    1.8046   -3.3370 O.2       3 UNK        -0.5208 
     27 CA         25.9360    1.9448   -2.5709 C.3       3 UNK         0.0250 
     28 CB         25.6005    2.6339   -1.2364 C.3       3 UNK        -0.1990 
     29 N          27.1206    1.1067   -2.3794 N.am      3 UNK        -0.4232 
     30 C          28.0234    0.8521   -3.3365 C.2       2 UNK         0.4993 
     31 O          27.9855    1.3685   -4.4507 O.2       2 UNK        -0.5286 
     32 CA         29.1417   -0.1625   -3.0223 C.3       2 UNK         0.0209 
     33 CB         30.4577    0.5626   -2.7010 C.3       2 UNK        -0.1931 
     34 N          28.8317   -1.1078   -1.9423 N.am      2 UNK        -0.4546 
     35 C          27.7763   -1.9340   -1.9189 C.2       1 UNK         0.5154 
     36 O          26.9321   -1.9911   -2.8149 O.2       1 UNK        -0.5181 
     37 C          24.5414   -1.3910   -8.2144 C.2       5 UNK         0.5014 
     38 O          24.7129   -0.1855   -8.0102 O.2       5 UNK        -0.5248 
     39 N          24.3321   -1.9195   -9.4278 N.am      6 UNK        -0.4434 
     40 CA         24.2541   -1.1426  -10.6699 C.3       6 UNK         0.0363 
     41 CB         23.7037   -2.0351  -11.7942 C.3       6 UNK        -0.1936 
     42 C          25.5899   -0.5060  -11.0971 C.2       6 UNK         0.5081 
     43 O          25.5737    0.5524  -11.7258 O.2       6 UNK        -0.5248 
     44 N          26.7162   -1.1512  -10.7588 N.am      7 UNK        -0.4718 
     45 CA         28.0674   -0.6505  -11.0415 C.3       7 UNK         0.0273 
     46 CB         29.0653   -1.8181  -10.9890 C.3       7 UNK        -0.1935 
     47 C          28.4930    0.4837  -10.0898 C.2       7 UNK         0.5018 
     48 O          29.3254    1.3079  -10.4720 O.2       7 UNK        -0.5186 
     49 N          27.8985    0.5083   -8.8869 N.am      8 UNK        -0.4240 
     50 CA         27.9992    1.5298   -7.8417 C.3       8 UNK         0.0235 
     51 CB         27.0700    2.7134   -8.1936 C.3       8 UNK        -0.2000 
     52 C          29.4519    1.9438   -7.5262 C.2       8 UNK         0.4941 
     53 O          30.2122    1.1435   -6.9762 O.2       8 UNK        -0.5273 
     54 N          29.8158    3.1737   -7.9194 N.am      9 UNK        -0.4262 
     55 CA         31.1177    3.8191   -7.7268 C.3       9 UNK         0.0264 
     56 CB         31.0373    5.2629   -8.2499 C.3       9 UNK        -0.1955 
     57 C          32.3242    3.0895   -8.3476 C.2       9 UNK         0.5031 
     58 O          33.4565    3.4248   -7.9953 O.2       9 UNK        -0.5390 
     59 N          32.0892    2.0901   -9.2131 N.am      10 UNK        -0.4204 
     60 CA         33.1087    1.1925   -9.7718 C.3       10 UNK         0.0237 
     61 CB         32.4337    0.1894  -10.7181 C.3       10 UNK        -0.1985 
     62 C          33.9447    0.4376   -8.7173 C.2       10 UNK         0.4970 
     63 O          35.0624    0.0262   -9.0311 O.2       10 UNK        -0.4914 
     64 N          33.4121    0.2872   -7.4951 N.am      11 UNK        -0.4285 
     65 CA         34.1475   -0.2126   -6.3235 C.3       11 UNK         0.1007 
     66 C          35.2723    0.7346   -5.8030 C.2       11 UNK         0.5703 
     67 N          35.3228    2.0012   -6.2019 N.am      11 UNK        -0.7361 
     68 O          36.1244    0.3080   -5.0277 O.2       11 UNK        -0.4986 
     69 C69        33.1744   -0.6308   -5.1846 C.3       12 UNK        -0.0947 
     70 S70        33.6672   -2.1982   -4.3918 S.3       12 UNK        -0.2240 
     71 C71        32.8801   -3.4264   -5.4828 C.3       12 UNK         0.0194 
     72 H72        24.1455   -0.1558    0.6087 H         1 UNK         0.0906 
     73 H73        24.0796   -1.8487    1.1007 H         1 UNK         0.0906 
     74 H74        24.8092   -0.6469    2.1686 H         1 UNK         0.0906 
     75 H75        25.6494   -3.1163    0.1416 H         1 UNK         0.3140 
     76 H76        28.3938   -2.5749    0.0446 H         1 UNK         0.1085 
     77 H77        27.1220   -4.8493   -0.1424 H         1 UNK         0.0836 
     78 H78        26.9582   -4.5238   -1.8395 H         1 UNK         0.0836 
     79 H79        28.2154   -6.0835   -3.0620 H         1 UNK         0.0731 
     80 H80        29.8804   -6.5503   -2.8729 H         1 UNK         0.0731 
     81 H81        31.7332   -5.1110   -3.6733 H         1 UNK         0.1312 
     82 H82        30.7486   -2.1183   -6.5841 H         1 UNK         0.1406 
     83 H83        27.6395   -4.0046   -4.3220 H         1 UNK         0.1631 
     84 H84        28.5729   -1.0858   -6.4176 H         1 UNK         0.0717 
     85 H85        27.2945   -1.7644   -5.4552 H         1 UNK         0.0717 
     86 H86        25.5248   -4.2203   -7.6845 H         1 UNK         0.0934 
     87 H87        25.9326   -3.8167   -6.0576 H         1 UNK         0.0934 
     88 H88        23.6670   -2.9647   -7.1064 H         1 UNK         0.0739 
     89 H89        24.6065   -0.6034   -5.9280 H         1 UNK         0.3093 
     90 H90        22.8351   -0.4574   -3.9493 H         1 UNK         0.0818 
     91 H91        22.3215   -2.3247   -2.4027 H         1 UNK         0.0819 
     92 H92        23.9713   -2.3095   -1.7928 H         1 UNK         0.0819 
     93 H93        22.9020   -0.9356   -1.5024 H         1 UNK         0.0819 
     94 H94        25.6880   -0.6370   -3.0939 H         1 UNK         0.3041 
     95 H95        26.1611    2.7267   -3.2995 H         1 UNK         0.0784 
     96 H96        24.7691    3.3305   -1.3521 H         1 UNK         0.0793 
     97 H97        25.3160    1.9136   -0.4692 H         1 UNK         0.0793 
     98 H98        26.4491    3.2059   -0.8608 H         1 UNK         0.0793 
     99 H99        27.2063    0.6386   -1.4820 H         1 UNK         0.3024 
    100 H100       29.2992   -0.7457   -3.9289 H         1 UNK         0.1171 
    101 H101       30.3809    1.1543   -1.7881 H         1 UNK         0.0786 
    102 H102       30.7343    1.2410   -3.5099 H         1 UNK         0.0786 
    103 H103       31.2795   -0.1437   -2.5799 H         1 UNK         0.0786 
    104 H104       29.4560   -1.0989   -1.1486 H         1 UNK         0.2977 
    105 H105       24.2094   -2.9188   -9.5117 H         1 UNK         0.3127 
    106 H106       23.5456   -0.3271  -10.5079 H         1 UNK         0.0770 
    107 H107       24.3570   -2.8857  -11.9926 H         1 UNK         0.0814 
    108 H108       23.6084   -1.4744  -12.7252 H         1 UNK         0.0814 
    109 H109       22.7137   -2.4198  -11.5485 H         1 UNK         0.0814 
    110 H110       26.6443   -2.0167  -10.2422 H         1 UNK         0.2983 
    111 H111       28.0768   -0.2458  -12.0562 H         1 UNK         0.0947 
    112 H112       28.7356   -2.6532  -11.6072 H         1 UNK         0.0806 
    113 H113       29.2114   -2.1877   -9.9736 H         1 UNK         0.0806 
    114 H114       30.0389   -1.5091  -11.3683 H         1 UNK         0.0806 
    115 H115       27.2452   -0.2373   -8.6906 H         1 UNK         0.3000 
    116 H116       27.6057    1.0701   -6.9363 H         1 UNK         0.0850 
    117 H117       27.0931    3.4809   -7.4186 H         1 UNK         0.0810 
    118 H118       26.0353    2.3784   -8.2740 H         1 UNK         0.0810 
    119 H119       27.3337    3.1793   -9.1439 H         1 UNK         0.0810 
    120 H120       29.1192    3.7241   -8.4002 H         1 UNK         0.3040 
    121 H121       31.2975    3.8558   -6.6505 H         1 UNK         0.0766 
    122 H122       30.8281    5.2923   -9.3201 H         1 UNK         0.0812 
    123 H123       30.2594    5.8298   -7.7381 H         1 UNK         0.0812 
    124 H124       31.9776    5.7920   -8.0877 H         1 UNK         0.0812 
    125 H125       31.1258    1.8898   -9.4631 H         1 UNK         0.3205 
    126 H126       33.7985    1.8073  -10.3533 H         1 UNK         0.0754 
    127 H127       33.1703   -0.4585  -11.1955 H         1 UNK         0.0769 
    128 H128       31.8841    0.6951  -11.5124 H         1 UNK         0.0769 
    129 H129       31.7363   -0.4506  -10.1774 H         1 UNK         0.0769 
    130 H130       32.4816    0.6465   -7.3234 H         1 UNK         0.2981 
    131 H131       34.6660   -1.1078   -6.6724 H         1 UNK         0.0541 
    132 H132       34.6367    2.3829   -6.8460 H         1 UNK         0.3459 
    133 H133       36.0618    2.5921   -5.8565 H         1 UNK         0.3459 
    134 H134       32.1558   -0.7325   -5.5537 H         1 UNK         0.0612 
    135 H135       33.1082    0.1392   -4.4136 H         1 UNK         0.0612 
    136 H136       33.0182   -3.1368   -6.5257 H         1 UNK         0.0624 
    137 H137       33.3951   -4.3805   -5.3619 H         1 UNK         0.0624 
@<TRIPOS>BOND
     1    1    2 1    
     2    1   72 1    
     3    1   73 1    
     4    1   74 1    
     5    2    3 2    
     6    2    4 am   BACKBONE|DICT|INTERRES
     7    4    5 1    
     8    4   75 1    
     9    5    6 1    
    10    5   35 1    
    11    5   76 1    
    12    6    7 1    
    13    6   77 1    
    14    6   78 1    
    15    7    8 1    
    16    8    9 1    
    17    8   79 1    
    18    8   80 1    
    19    9   10 ar   
    20    9   14 ar   
    21   10   11 ar   
    22   10   81 1    
    23   11   12 ar   
    24   11   71 1    
    25   12   13 ar   
    26   12   82 1    
    27   13   14 ar   
    28   13   15 1    
    29   14   83 1    
    30   15   16 1    
    31   15   84 1    
    32   15   85 1    
    33   16   17 1    
    34   17   18 1    
    35   17   86 1    
    36   17   87 1    
    37   18   19 1    
    38   18   37 1    
    39   18   88 1    
    40   19   20 am   BACKBONE|DICT|INTERRES
    41   19   89 1    
    42   20   21 2    
    43   20   22 1    
    44   22   23 1    
    45   22   24 1    
    46   22   90 1    
    47   23   91 1    
    48   23   92 1    
    49   23   93 1    
    50   24   25 am   BACKBONE|DICT|INTERRES
    51   24   94 1    
    52   25   26 2    
    53   25   27 1    
    54   27   28 1    
    55   27   29 1    
    56   27   95 1    
    57   28   96 1    
    58   28   97 1    
    59   28   98 1    
    60   29   30 am   BACKBONE|DICT|INTERRES
    61   29   99 1    
    62   30   31 2    
    63   30   32 1    
    64   32   33 1    
    65   32   34 1    
    66   32  100 1    
    67   33  101 1    
    68   33  102 1    
    69   33  103 1    
    70   34   35 am   BACKBONE|DICT|INTERRES
    71   34  104 1    
    72   35   36 2    
    73   37   38 2    
    74   37   39 am   BACKBONE|DICT|INTERRES
    75   39   40 1    
    76   39  105 1    
    77   40   41 1    
    78   40   42 1    
    79   40  106 1    
    80   41  107 1    
    81   41  108 1    
    82   41  109 1    
    83   42   43 2    
    84   42   44 am   BACKBONE|DICT|INTERRES
    85   44   45 1    
    86   44  110 1    
    87   45   46 1    
    88   45   47 1    
    89   45  111 1    
    90   46  112 1    
    91   46  113 1    
    92   46  114 1    
    93   47   48 2    
    94   47   49 am   BACKBONE|DICT|INTERRES
    95   49   50 1    
    96   49  115 1    
    97   50   51 1    
    98   50   52 1    
    99   50  116 1    
   100   51  117 1    
   101   51  118 1    
   102   51  119 1    
   103   52   53 2    
   104   52   54 am   BACKBONE|DICT|INTERRES
   105   54   55 1    
   106   54  120 1    
   107   55   56 1    
   108   55   57 1    
   109   55  121 1    
   110   56  122 1    
   111   56  123 1    
   112   56  124 1    
   113   57   58 2    
   114   57   59 am   BACKBONE|DICT|INTERRES
   115   59   60 1    
   116   59  125 1    
   117   60   61 1    
   118   60   62 1    
   119   60  126 1    
   120   61  127 1    
   121   61  128 1    
   122   61  129 1    
   123   62   63 2    
   124   62   64 am   BACKBONE|DICT|INTERRES
   125   64   65 1    
   126   64  130 1    
   127   65   66 1    
   128   65   69 1    
   129   65  131 1    
   130   66   67 am   BACKBONE|DICT|INTERRES
   131   66   68 2    
   132   67  132 1    
   133   67  133 1    
   134   69   70 1    
   135   69  134 1    
   136   69  135 1    
   137   70   71 1    
   138   71  136 1    
   139   71  137 1    
@<TRIPOS>SUBSTRUCTURE
     1 UNK         1 GROUP             0       ****    0 ROOT    
