@<TRIPOS>MOLECULE
3R137
137   139    1
SMALL
USER_CHARGES


@<TRIPOS>ATOM
      1 CA         25.8495   -4.9498   -2.7143 C.3       0 UNK        -0.2020 
      2 C          26.3947   -3.9253   -1.7317 C.2       0 UNK         0.4855 
      3 O          25.6736   -3.5067   -0.8264 O.2       0 UNK        -0.5197 
      4 N          27.6635   -3.5319   -1.9061 N.am      1 UNK        -0.4892 
      5 CA         28.4439   -2.6155   -1.0626 C.3       1 UNK         0.0835 
      6 C6         29.8741   -2.4182   -1.6254 C.3       12 UNK        -0.0855 
      7 S7         30.8502   -3.9579   -1.6014 S.3       12 UNK        -0.2931 
      8 C8         32.0752   -3.6259   -2.9186 C.3       12 UNK         0.0378 
      9 C9         31.6244   -3.9053   -4.3562 C.ar      12 UNK        -0.0802 
     10 C10        32.5643   -3.7527   -5.3804 C.ar      12 UNK        -0.0944 
     11 C11        32.2297   -4.0162   -6.7117 C.ar      12 UNK        -0.0787 
     12 C12        30.9280   -4.4190   -7.0261 C.ar      12 UNK        -0.0862 
     13 C13        29.9773   -4.5916   -6.0160 C.ar      12 UNK        -0.0733 
     14 C14        30.3332   -4.3365   -4.6882 C.ar      12 UNK        -0.0832 
     15 C15        28.5885   -5.1276   -6.3404 C.3       12 UNK         0.0240 
     16 S16        27.2643   -3.9722   -5.8668 S.3       12 UNK        -0.2522 
     17 C17        27.1822   -2.8852   -7.3262 C.3       12 UNK        -0.0967 
     18 CA         25.9187   -1.9809   -7.2823 C.3       5 UNK         0.0660 
     19 N          25.8856   -1.0805   -6.1234 N.am      5 UNK        -0.4015 
     20 C          26.7312   -0.0716   -5.8815 C.2       4 UNK         0.4946 
     21 O          27.6987    0.1923   -6.5962 O.2       4 UNK        -0.5353 
     22 CA         26.4775    0.8061   -4.6441 C.3       4 UNK         0.0277 
     23 CB         25.9368    2.1893   -5.0578 C.3       4 UNK        -0.1981 
     24 N          25.6480    0.2061   -3.5876 N.am      4 UNK        -0.4209 
     25 C          24.3376   -0.0894   -3.6015 C.2       3 UNK         0.4942 
     26 O          23.6385    0.0097   -4.6103 O.2       3 UNK        -0.5208 
     27 CA         23.6923   -0.6203   -2.3024 C.3       3 UNK         0.0250 
     28 CB         23.0431   -1.9951   -2.5335 C.3       3 UNK        -0.1990 
     29 N          24.6261   -0.7135   -1.1756 N.am      3 UNK        -0.4232 
     30 C          25.0494    0.3294   -0.4449 C.2       2 UNK         0.4993 
     31 O          24.6038    1.4708   -0.5654 O.2       2 UNK        -0.5286 
     32 CA         26.1917    0.0752    0.5588 C.3       2 UNK         0.0209 
     33 CB         25.6328   -0.0733    1.9831 C.3       2 UNK        -0.1931 
     34 N          27.0209   -1.0946    0.2423 N.am      2 UNK        -0.4546 
     35 C          27.7384   -1.2564   -0.8791 C.2       1 UNK         0.5154 
     36 O          27.8096   -0.4067   -1.7680 O.2       1 UNK        -0.5181 
     37 C          25.6626   -1.1942   -8.5881 C.2       5 UNK         0.5014 
     38 O          26.3564   -1.3919   -9.5881 O.2       5 UNK        -0.5248 
     39 N          24.6618   -0.2995   -8.5347 N.am      6 UNK        -0.4434 
     40 CA         24.2344    0.6209   -9.5910 C.3       6 UNK         0.0363 
     41 CB         23.5771   -0.1558  -10.7562 C.3       6 UNK        -0.1936 
     42 C          25.3776    1.5651  -10.0124 C.2       6 UNK         0.5081 
     43 O          25.9331    2.2577   -9.1580 O.2       6 UNK        -0.5248 
     44 N          25.7138    1.5777  -11.3086 N.am      7 UNK        -0.4718 
     45 CA         26.7361    2.4327  -11.9192 C.3       7 UNK         0.0273 
     46 CB         26.6051    2.3411  -13.4491 C.3       7 UNK        -0.1935 
     47 C          28.1830    2.1324  -11.4815 C.2       7 UNK         0.5018 
     48 O          29.0671    2.9361  -11.7811 O.2       7 UNK        -0.5186 
     49 N          28.4142    1.0012  -10.7975 N.am      8 UNK        -0.4240 
     50 CA         29.7244    0.6056  -10.2752 C.3       8 UNK         0.0235 
     51 CB         29.6622   -0.8474   -9.7836 C.3       8 UNK        -0.2000 
     52 C          30.2446    1.5174   -9.1506 C.2       8 UNK         0.4941 
     53 O          31.4609    1.6149   -8.9914 O.2       8 UNK        -0.5273 
     54 N          29.3353    2.1437   -8.3839 N.am      9 UNK        -0.4262 
     55 CA         29.6056    3.0350   -7.2445 C.3       9 UNK         0.0264 
     56 CB         30.1645    4.3840   -7.7427 C.3       9 UNK        -0.1955 
     57 C          30.4977    2.3768   -6.1703 C.2       9 UNK         0.5031 
     58 O          31.4732    2.9791   -5.7151 O.2       9 UNK        -0.5390 
     59 N          30.1781    1.1148   -5.8452 N.am      10 UNK        -0.4204 
     60 CA         30.9157    0.1905   -4.9723 C.3       10 UNK         0.0237 
     61 CB         30.8615    0.6742   -3.5077 C.3       10 UNK        -0.1985 
     62 C          32.3596   -0.1036   -5.4368 C.2       10 UNK         0.4970 
     63 O          33.1666   -0.5696   -4.6308 O.2       10 UNK        -0.4914 
     64 N          32.6662    0.1840   -6.7104 N.am      11 UNK        -0.4285 
     65 CA         33.9950    0.0938   -7.3323 C.3       11 UNK         0.1007 
     66 C          35.0628    1.0341   -6.6934 C.2       11 UNK         0.5703 
     67 N          34.6677    2.1216   -6.0378 N.am      11 UNK        -0.7361 
     68 O          36.2637    0.8010   -6.8171 O.2       11 UNK        -0.4986 
     69 C69        34.4719   -1.3725   -7.5258 C.3       12 UNK        -0.0947 
     70 S70        33.3420   -2.3110   -8.6114 S.3       12 UNK        -0.2240 
     71 C71        33.2896   -3.9369   -7.8019 C.3       12 UNK         0.0194 
     72 H72        26.6494   -5.5252   -3.1799 H         1 UNK         0.0906 
     73 H73        25.2809   -4.4575   -3.5017 H         1 UNK         0.0906 
     74 H74        25.1892   -5.6497   -2.2031 H         1 UNK         0.0906 
     75 H75        28.1736   -3.9094   -2.6887 H         1 UNK         0.3140 
     76 H76        28.5330   -3.0785   -0.0776 H         1 UNK         0.1085 
     77 H77        29.8296   -2.0359   -2.6475 H         1 UNK         0.0836 
     78 H78        30.4204   -1.6740   -1.0420 H         1 UNK         0.0836 
     79 H79        32.4076   -2.5895   -2.8421 H         1 UNK         0.0731 
     80 H80        32.9518   -4.2417   -2.7125 H         1 UNK         0.0731 
     81 H81        33.5707   -3.4427   -5.1346 H         1 UNK         0.1312 
     82 H82        30.6684   -4.6340   -8.0537 H         1 UNK         0.1406 
     83 H83        29.5945   -4.4985   -3.9203 H         1 UNK         0.1631 
     84 H84        28.4974   -5.3799   -7.3979 H         1 UNK         0.0717 
     85 H85        28.4423   -6.0605   -5.7943 H         1 UNK         0.0717 
     86 H86        28.0969   -2.2948   -7.3689 H         1 UNK         0.0934 
     87 H87        27.1731   -3.5102   -8.2209 H         1 UNK         0.0934 
     88 H88        25.0548   -2.6389   -7.1753 H         1 UNK         0.0739 
     89 H89        25.0844   -1.1643   -5.5100 H         1 UNK         0.3093 
     90 H90        27.4560    0.9619   -4.1872 H         1 UNK         0.0818 
     91 H91        25.8483    2.8534   -4.1981 H         1 UNK         0.0819 
     92 H92        26.6016    2.6722   -5.7735 H         1 UNK         0.0819 
     93 H93        24.9579    2.1210   -5.5329 H         1 UNK         0.0819 
     94 H94        26.1664    0.0110   -2.7354 H         1 UNK         0.3041 
     95 H95        22.9001    0.0818   -2.0340 H         1 UNK         0.0784 
     96 H96        22.2648   -1.9385   -3.2957 H         1 UNK         0.0793 
     97 H97        23.7707   -2.7332   -2.8673 H         1 UNK         0.0793 
     98 H98        22.5756   -2.3725   -1.6238 H         1 UNK         0.0793 
     99 H99        25.0311   -1.6283   -0.9930 H         1 UNK         0.3024 
    100 H100       26.8394    0.9545    0.5314 H         1 UNK         0.1171 
    101 H101       26.4338   -0.1573    2.7180 H         1 UNK         0.0786 
    102 H102       25.0322    0.7945    2.2599 H         1 UNK         0.0786 
    103 H103       24.9956   -0.9539    2.0764 H         1 UNK         0.0786 
    104 H104       26.9649   -1.8689    0.8893 H         1 UNK         0.2977 
    105 H105       24.1890   -0.1836   -7.6489 H         1 UNK         0.3127 
    106 H106       23.4680    1.2600   -9.1500 H         1 UNK         0.0770 
    107 H107       24.2787   -0.8220  -11.2596 H         1 UNK         0.0814 
    108 H108       23.1645    0.5238  -11.5032 H         1 UNK         0.0814 
    109 H109       22.7491   -0.7669  -10.3969 H         1 UNK         0.0814 
    110 H110       25.2198    0.9540  -11.9306 H         1 UNK         0.2983 
    111 H111       26.5269    3.4621  -11.6197 H         1 UNK         0.0947 
    112 H112       27.3218    2.9980  -13.9445 H         1 UNK         0.0806 
    113 H113       25.6120    2.6426  -13.7827 H         1 UNK         0.0806 
    114 H114       26.7895    1.3283  -13.8096 H         1 UNK         0.0806 
    115 H115       27.6332    0.3919  -10.5872 H         1 UNK         0.3000 
    116 H116       30.4414    0.6577  -11.0974 H         1 UNK         0.0850 
    117 H117       29.3321   -1.5254  -10.5706 H         1 UNK         0.0810 
    118 H118       28.9766   -0.9463   -8.9437 H         1 UNK         0.0810 
    119 H119       30.6409   -1.1898   -9.4461 H         1 UNK         0.0810 
    120 H120       28.3568    1.9564   -8.5684 H         1 UNK         0.3040 
    121 H121       28.6448    3.2308   -6.7691 H         1 UNK         0.0766 
    122 H122       31.1457    4.2683   -8.2045 H         1 UNK         0.0812 
    123 H123       30.2735    5.0906   -6.9190 H         1 UNK         0.0812 
    124 H124       29.5008    4.8409   -8.4767 H         1 UNK         0.0812 
    125 H125       29.3317    0.7278   -6.2695 H         1 UNK         0.3205 
    126 H126       30.3870   -0.7627   -5.0273 H         1 UNK         0.0754 
    127 H127       31.3946    1.6154   -3.3729 H         1 UNK         0.0769 
    128 H128       31.3170   -0.0517   -2.8342 H         1 UNK         0.0769 
    129 H129       29.8339    0.8202   -3.1764 H         1 UNK         0.0769 
    130 H130       31.9624    0.6099   -7.3023 H         1 UNK         0.2981 
    131 H131       33.8643    0.5089   -8.3318 H         1 UNK         0.0541 
    132 H132       35.3589    2.7336   -5.6349 H         1 UNK         0.3459 
    133 H133       33.6830    2.3346   -5.9414 H         1 UNK         0.3459 
    134 H134       34.5785   -1.8710   -6.5626 H         1 UNK         0.0612 
    135 H135       35.4570   -1.4008   -7.9939 H         1 UNK         0.0612 
    136 H136       34.2740   -4.1812   -7.3997 H         1 UNK         0.0624 
    137 H137       33.0836   -4.6911   -8.5627 H         1 UNK         0.0624 
@<TRIPOS>BOND
     1    1    2 1    
     2    1   72 1    
     3    1   73 1    
     4    1   74 1    
     5    2    3 2    
     6    2    4 am   BACKBONE|DICT|INTERRES
     7    4    5 1    
     8    4   75 1    
     9    5    6 1    
    10    5   35 1    
    11    5   76 1    
    12    6    7 1    
    13    6   77 1    
    14    6   78 1    
    15    7    8 1    
    16    8    9 1    
    17    8   79 1    
    18    8   80 1    
    19    9   10 ar   
    20    9   14 ar   
    21   10   11 ar   
    22   10   81 1    
    23   11   12 ar   
    24   11   71 1    
    25   12   13 ar   
    26   12   82 1    
    27   13   14 ar   
    28   13   15 1    
    29   14   83 1    
    30   15   16 1    
    31   15   84 1    
    32   15   85 1    
    33   16   17 1    
    34   17   18 1    
    35   17   86 1    
    36   17   87 1    
    37   18   19 1    
    38   18   37 1    
    39   18   88 1    
    40   19   20 am   BACKBONE|DICT|INTERRES
    41   19   89 1    
    42   20   21 2    
    43   20   22 1    
    44   22   23 1    
    45   22   24 1    
    46   22   90 1    
    47   23   91 1    
    48   23   92 1    
    49   23   93 1    
    50   24   25 am   BACKBONE|DICT|INTERRES
    51   24   94 1    
    52   25   26 2    
    53   25   27 1    
    54   27   28 1    
    55   27   29 1    
    56   27   95 1    
    57   28   96 1    
    58   28   97 1    
    59   28   98 1    
    60   29   30 am   BACKBONE|DICT|INTERRES
    61   29   99 1    
    62   30   31 2    
    63   30   32 1    
    64   32   33 1    
    65   32   34 1    
    66   32  100 1    
    67   33  101 1    
    68   33  102 1    
    69   33  103 1    
    70   34   35 am   BACKBONE|DICT|INTERRES
    71   34  104 1    
    72   35   36 2    
    73   37   38 2    
    74   37   39 am   BACKBONE|DICT|INTERRES
    75   39   40 1    
    76   39  105 1    
    77   40   41 1    
    78   40   42 1    
    79   40  106 1    
    80   41  107 1    
    81   41  108 1    
    82   41  109 1    
    83   42   43 2    
    84   42   44 am   BACKBONE|DICT|INTERRES
    85   44   45 1    
    86   44  110 1    
    87   45   46 1    
    88   45   47 1    
    89   45  111 1    
    90   46  112 1    
    91   46  113 1    
    92   46  114 1    
    93   47   48 2    
    94   47   49 am   BACKBONE|DICT|INTERRES
    95   49   50 1    
    96   49  115 1    
    97   50   51 1    
    98   50   52 1    
    99   50  116 1    
   100   51  117 1    
   101   51  118 1    
   102   51  119 1    
   103   52   53 2    
   104   52   54 am   BACKBONE|DICT|INTERRES
   105   54   55 1    
   106   54  120 1    
   107   55   56 1    
   108   55   57 1    
   109   55  121 1    
   110   56  122 1    
   111   56  123 1    
   112   56  124 1    
   113   57   58 2    
   114   57   59 am   BACKBONE|DICT|INTERRES
   115   59   60 1    
   116   59  125 1    
   117   60   61 1    
   118   60   62 1    
   119   60  126 1    
   120   61  127 1    
   121   61  128 1    
   122   61  129 1    
   123   62   63 2    
   124   62   64 am   BACKBONE|DICT|INTERRES
   125   64   65 1    
   126   64  130 1    
   127   65   66 1    
   128   65   69 1    
   129   65  131 1    
   130   66   67 am   BACKBONE|DICT|INTERRES
   131   66   68 2    
   132   67  132 1    
   133   67  133 1    
   134   69   70 1    
   135   69  134 1    
   136   69  135 1    
   137   70   71 1    
   138   71  136 1    
   139   71  137 1    
@<TRIPOS>SUBSTRUCTURE
     1 UNK         1 GROUP             0       ****    0 ROOT    
