@<TRIPOS>MOLECULE
3R137
137   139    1
SMALL
USER_CHARGES


@<TRIPOS>ATOM
      1 CA         24.6648   -1.7034    0.7030 C.3       0 UNK        -0.2020 
      2 C          26.0287   -1.6470    0.0335 C.2       0 UNK         0.4855 
      3 O          26.6320   -0.5758   -0.0359 O.2       0 UNK        -0.5197 
      4 N          26.5240   -2.7850   -0.4719 N.am      1 UNK        -0.4892 
      5 CA         27.8210   -2.8892   -1.1498 C.3       1 UNK         0.0835 
      6 C6         28.2398   -4.3621   -1.3804 C.3       12 UNK        -0.0855 
      7 S7         30.0520   -4.5595   -1.2948 S.3       12 UNK        -0.2931 
      8 C8         30.3573   -5.8597   -2.5311 C.3       12 UNK         0.0378 
      9 C9         30.2204   -5.3346   -3.9518 C.ar      12 UNK        -0.0802 
     10 C10        31.2297   -4.5438   -4.5072 C.ar      12 UNK        -0.0944 
     11 C11        31.1144   -4.0523   -5.8114 C.ar      12 UNK        -0.0787 
     12 C12        29.9780   -4.3647   -6.5653 C.ar      12 UNK        -0.0862 
     13 C13        28.9698   -5.1713   -6.0244 C.ar      12 UNK        -0.0733 
     14 C14        29.0968   -5.6522   -4.7185 C.ar      12 UNK        -0.0832 
     15 C15        27.7436   -5.5406   -6.8464 C.3       12 UNK         0.0240 
     16 S16        26.2654   -4.6390   -6.2886 S.3       12 UNK        -0.2522 
     17 C17        26.7189   -2.9467   -6.7805 C.3       12 UNK        -0.0967 
     18 CA         25.5163   -1.9734   -6.7272 C.3       5 UNK         0.0660 
     19 N          25.0109   -1.8168   -5.3619 N.am      5 UNK        -0.4015 
     20 C          23.7654   -1.4520   -5.0335 C.2       4 UNK         0.4946 
     21 O          22.8745   -1.2420   -5.8583 O.2       4 UNK        -0.5353 
     22 CA         23.4959   -1.2085   -3.5442 C.3       4 UNK         0.0277 
     23 CB         23.4648   -2.5306   -2.7590 C.3       4 UNK        -0.1981 
     24 N          24.5061   -0.3048   -2.9905 N.am      4 UNK        -0.4209 
     25 C          24.4852    1.0287   -3.1426 C.2       3 UNK         0.4942 
     26 O          23.5535    1.6421   -3.6637 O.2       3 UNK        -0.5208 
     27 CA         25.7042    1.8198   -2.6378 C.3       3 UNK         0.0250 
     28 CB         25.4488    2.3651   -1.2233 C.3       3 UNK        -0.1990 
     29 N          26.9334    1.0210   -2.6520 N.am      3 UNK        -0.4232 
     30 C          27.6646    0.8060   -3.7581 C.2       2 UNK         0.4993 
     31 O          27.4203    1.3326   -4.8421 O.2       2 UNK        -0.5286 
     32 CA         28.8695   -0.1507   -3.6547 C.3       2 UNK         0.0209 
     33 CB         30.1679    0.6546   -3.4834 C.3       2 UNK        -0.1931 
     34 N          28.7730   -1.1272   -2.5654 N.am      2 UNK        -0.4546 
     35 C          27.8205   -2.0615   -2.4518 C.2       1 UNK         0.5154 
     36 O          26.9221   -2.2275   -3.2814 O.2       1 UNK        -0.5181 
     37 C          25.8679   -0.5963   -7.3273 C.2       5 UNK         0.5014 
     38 O          27.0038   -0.3888   -7.7515 O.2       5 UNK        -0.5248 
     39 N          24.8913    0.3222   -7.3623 N.am      6 UNK        -0.4434 
     40 CA         25.0487    1.7229   -7.7741 C.3       6 UNK         0.0363 
     41 CB         23.7107    2.4562   -7.5945 C.3       6 UNK        -0.1936 
     42 C          25.5860    1.9167   -9.2049 C.2       6 UNK         0.5081 
     43 O          26.2667    2.9074   -9.4686 O.2       6 UNK        -0.5248 
     44 N          25.3087    0.9519  -10.0926 N.am      7 UNK        -0.4718 
     45 CA         25.8404    0.8890  -11.4574 C.3       7 UNK         0.0273 
     46 CB         25.0298   -0.1437  -12.2579 C.3       7 UNK        -0.1935 
     47 C          27.3465    0.5616  -11.5279 C.2       7 UNK         0.5018 
     48 O          27.9522    0.7813  -12.5775 O.2       7 UNK        -0.5186 
     49 N          27.9211    0.0442  -10.4340 N.am      8 UNK        -0.4240 
     50 CA         29.3307   -0.3202  -10.2949 C.3       8 UNK         0.0235 
     51 CB         29.4459   -1.8564  -10.2440 C.3       8 UNK        -0.2000 
     52 C          29.9454    0.3523   -9.0534 C.2       8 UNK         0.4941 
     53 O          30.8633   -0.2101   -8.4546 O.2       8 UNK        -0.5273 
     54 N          29.4276    1.5339   -8.6808 N.am      9 UNK        -0.4262 
     55 CA         29.8796    2.3318   -7.5382 C.3       9 UNK         0.0264 
     56 CB         28.9360    3.5310   -7.3542 C.3       9 UNK        -0.1955 
     57 C          31.3363    2.8075   -7.6833 C.2       9 UNK         0.5031 
     58 O          31.8196    2.9690   -8.8074 O.2       9 UNK        -0.5390 
     59 N          31.9884    3.0419   -6.5338 N.am      10 UNK        -0.4204 
     60 CA         33.4175    3.3447   -6.3740 C.3       10 UNK         0.0237 
     61 CB         33.7859    4.7023   -7.0126 C.3       10 UNK        -0.1985 
     62 C          34.2891    2.1742   -6.8695 C.2       10 UNK         0.4970 
     63 O          35.0959    2.3411   -7.7864 O.2       10 UNK        -0.4914 
     64 N          34.0632    1.0032   -6.2582 N.am      11 UNK        -0.4285 
     65 CA         34.7151   -0.2844   -6.5419 C.3       11 UNK         0.1007 
     66 C          36.2684   -0.2159   -6.5258 C.2       11 UNK         0.5703 
     67 N          36.9313   -0.8914   -7.4550 N.am      11 UNK        -0.7361 
     68 O          36.8727    0.4024   -5.6507 O.2       11 UNK        -0.4986 
     69 C69        34.2303   -1.3787   -5.5539 C.3       12 UNK        -0.0947 
     70 S70        32.4189   -1.6201   -5.5511 S.3       12 UNK        -0.2240 
     71 C71        32.2406   -3.2187   -6.4069 C.3       12 UNK         0.0194 
     72 H72        24.2190   -2.6958    0.6398 H         1 UNK         0.0906 
     73 H73        24.7550   -1.4380    1.7559 H         1 UNK         0.0906 
     74 H74        23.9861   -0.9933    0.2312 H         1 UNK         0.0906 
     75 H75        25.9820   -3.6356   -0.4173 H         1 UNK         0.3140 
     76 H76        28.5409   -2.4381   -0.4622 H         1 UNK         0.1085 
     77 H77        27.8240   -5.0026   -0.6009 H         1 UNK         0.0836 
     78 H78        27.8437   -4.7480   -2.3213 H         1 UNK         0.0836 
     79 H79        31.3664   -6.2494   -2.3890 H         1 UNK         0.0731 
     80 H80        29.6807   -6.6976   -2.3547 H         1 UNK         0.0731 
     81 H81        32.1060   -4.3036   -3.9203 H         1 UNK         0.1312 
     82 H82        29.8843   -3.9902   -7.5755 H         1 UNK         0.1406 
     83 H83        28.3142   -6.2712   -4.3009 H         1 UNK         0.1631 
     84 H84        27.9114   -5.3490   -7.9075 H         1 UNK         0.0717 
     85 H85        27.5577   -6.6119   -6.7566 H         1 UNK         0.0717 
     86 H86        27.5287   -2.5957   -6.1369 H         1 UNK         0.0934 
     87 H87        27.1259   -2.9935   -7.7924 H         1 UNK         0.0934 
     88 H88        24.7228   -2.3924   -7.3498 H         1 UNK         0.0739 
     89 H89        25.6923   -1.9679   -4.6198 H         1 UNK         0.3093 
     90 H90        22.5120   -0.7427   -3.4528 H         1 UNK         0.0818 
     91 H91        23.1627   -2.3676   -1.7255 H         1 UNK         0.0819 
     92 H92        22.7440   -3.2232   -3.1957 H         1 UNK         0.0819 
     93 H93        24.4325   -3.0324   -2.7539 H         1 UNK         0.0819 
     94 H94        25.3379   -0.7323   -2.6064 H         1 UNK         0.3041 
     95 H95        25.8375    2.6763   -3.3028 H         1 UNK         0.0784 
     96 H96        24.5945    3.0435   -1.2196 H         1 UNK         0.0793 
     97 H97        25.2300    1.5697   -0.5111 H         1 UNK         0.0793 
     98 H98        26.3073    2.9241   -0.8509 H         1 UNK         0.0793 
     99 H99        27.1829    0.5516   -1.7879 H         1 UNK         0.3024 
    100 H100       28.9242   -0.7057   -4.5949 H         1 UNK         0.1171 
    101 H101       31.0405    0.0027   -3.4540 H         1 UNK         0.0786 
    102 H102       30.3090    1.3472   -4.3126 H         1 UNK         0.0786 
    103 H103       30.1592    1.2432   -2.5650 H         1 UNK         0.0786 
    104 H104       29.4648   -1.0501   -1.8335 H         1 UNK         0.2977 
    105 H105       23.9875    0.0509   -6.9872 H         1 UNK         0.3127 
    106 H106       25.7748    2.1713   -7.0936 H         1 UNK         0.0770 
    107 H107       22.9274    2.0259   -8.2197 H         1 UNK         0.0814 
    108 H108       23.8033    3.5093   -7.8642 H         1 UNK         0.0814 
    109 H109       23.3742    2.4175   -6.5578 H         1 UNK         0.0814 
    110 H110       24.7406    0.1751   -9.7871 H         1 UNK         0.2983 
    111 H111       25.7024    1.8683  -11.9212 H         1 UNK         0.0947 
    112 H112       25.3727   -0.1929  -13.2925 H         1 UNK         0.0806 
    113 H113       23.9709    0.1144  -12.2828 H         1 UNK         0.0806 
    114 H114       25.1234   -1.1454  -11.8364 H         1 UNK         0.0806 
    115 H115       27.3697   -0.0670   -9.5851 H         1 UNK         0.3000 
    116 H116       29.9028    0.0396  -11.1525 H         1 UNK         0.0850 
    117 H117       30.4890   -2.1724  -10.2022 H         1 UNK         0.0810 
    118 H118       29.0041   -2.3171  -11.1274 H         1 UNK         0.0810 
    119 H119       28.9447   -2.2634   -9.3652 H         1 UNK         0.0810 
    120 H120       28.6764    1.9229   -9.2326 H         1 UNK         0.3040 
    121 H121       29.8089    1.6935   -6.6553 H         1 UNK         0.0766 
    122 H122       27.9189    3.2010   -7.1459 H         1 UNK         0.0812 
    123 H123       28.9098    4.1645   -8.2417 H         1 UNK         0.0812 
    124 H124       29.2459    4.1546   -6.5147 H         1 UNK         0.0812 
    125 H125       31.4771    2.9175   -5.6716 H         1 UNK         0.3205 
    126 H126       33.5993    3.4337   -5.3016 H         1 UNK         0.0754 
    127 H127       34.8226    4.9628   -6.7961 H         1 UNK         0.0769 
    128 H128       33.1613    5.5059   -6.6226 H         1 UNK         0.0769 
    129 H129       33.6773    4.6907   -8.0974 H         1 UNK         0.0769 
    130 H130       33.3671    0.9693   -5.5298 H         1 UNK         0.2981 
    131 H131       34.4006   -0.5714   -7.5471 H         1 UNK         0.0541 
    132 H132       36.4454   -1.4123   -8.1684 H         1 UNK         0.3459 
    133 H133       37.9391   -0.8717   -7.4488 H         1 UNK         0.3459 
    134 H134       34.5237   -1.1191   -4.5348 H         1 UNK         0.0612 
    135 H135       34.7242   -2.3277   -5.7673 H         1 UNK         0.0612 
    136 H136       33.1615   -3.7984   -6.3400 H         1 UNK         0.0624 
    137 H137       32.0713   -3.0283   -7.4680 H         1 UNK         0.0624 
@<TRIPOS>BOND
     1    1    2 1    
     2    1   72 1    
     3    1   73 1    
     4    1   74 1    
     5    2    3 2    
     6    2    4 am   BACKBONE|DICT|INTERRES
     7    4    5 1    
     8    4   75 1    
     9    5    6 1    
    10    5   35 1    
    11    5   76 1    
    12    6    7 1    
    13    6   77 1    
    14    6   78 1    
    15    7    8 1    
    16    8    9 1    
    17    8   79 1    
    18    8   80 1    
    19    9   10 ar   
    20    9   14 ar   
    21   10   11 ar   
    22   10   81 1    
    23   11   12 ar   
    24   11   71 1    
    25   12   13 ar   
    26   12   82 1    
    27   13   14 ar   
    28   13   15 1    
    29   14   83 1    
    30   15   16 1    
    31   15   84 1    
    32   15   85 1    
    33   16   17 1    
    34   17   18 1    
    35   17   86 1    
    36   17   87 1    
    37   18   19 1    
    38   18   37 1    
    39   18   88 1    
    40   19   20 am   BACKBONE|DICT|INTERRES
    41   19   89 1    
    42   20   21 2    
    43   20   22 1    
    44   22   23 1    
    45   22   24 1    
    46   22   90 1    
    47   23   91 1    
    48   23   92 1    
    49   23   93 1    
    50   24   25 am   BACKBONE|DICT|INTERRES
    51   24   94 1    
    52   25   26 2    
    53   25   27 1    
    54   27   28 1    
    55   27   29 1    
    56   27   95 1    
    57   28   96 1    
    58   28   97 1    
    59   28   98 1    
    60   29   30 am   BACKBONE|DICT|INTERRES
    61   29   99 1    
    62   30   31 2    
    63   30   32 1    
    64   32   33 1    
    65   32   34 1    
    66   32  100 1    
    67   33  101 1    
    68   33  102 1    
    69   33  103 1    
    70   34   35 am   BACKBONE|DICT|INTERRES
    71   34  104 1    
    72   35   36 2    
    73   37   38 2    
    74   37   39 am   BACKBONE|DICT|INTERRES
    75   39   40 1    
    76   39  105 1    
    77   40   41 1    
    78   40   42 1    
    79   40  106 1    
    80   41  107 1    
    81   41  108 1    
    82   41  109 1    
    83   42   43 2    
    84   42   44 am   BACKBONE|DICT|INTERRES
    85   44   45 1    
    86   44  110 1    
    87   45   46 1    
    88   45   47 1    
    89   45  111 1    
    90   46  112 1    
    91   46  113 1    
    92   46  114 1    
    93   47   48 2    
    94   47   49 am   BACKBONE|DICT|INTERRES
    95   49   50 1    
    96   49  115 1    
    97   50   51 1    
    98   50   52 1    
    99   50  116 1    
   100   51  117 1    
   101   51  118 1    
   102   51  119 1    
   103   52   53 2    
   104   52   54 am   BACKBONE|DICT|INTERRES
   105   54   55 1    
   106   54  120 1    
   107   55   56 1    
   108   55   57 1    
   109   55  121 1    
   110   56  122 1    
   111   56  123 1    
   112   56  124 1    
   113   57   58 2    
   114   57   59 am   BACKBONE|DICT|INTERRES
   115   59   60 1    
   116   59  125 1    
   117   60   61 1    
   118   60   62 1    
   119   60  126 1    
   120   61  127 1    
   121   61  128 1    
   122   61  129 1    
   123   62   63 2    
   124   62   64 am   BACKBONE|DICT|INTERRES
   125   64   65 1    
   126   64  130 1    
   127   65   66 1    
   128   65   69 1    
   129   65  131 1    
   130   66   67 am   BACKBONE|DICT|INTERRES
   131   66   68 2    
   132   67  132 1    
   133   67  133 1    
   134   69   70 1    
   135   69  134 1    
   136   69  135 1    
   137   70   71 1    
   138   71  136 1    
   139   71  137 1    
@<TRIPOS>SUBSTRUCTURE
     1 UNK         1 GROUP             0       ****    0 ROOT    
