@<TRIPOS>MOLECULE
3R137
137   139    1
SMALL
USER_CHARGES


@<TRIPOS>ATOM
      1 CA         27.2275   -4.2031    3.0099 C.3       0 UNK        -0.2020 
      2 C          27.3356   -3.5826    1.6255 C.2       0 UNK         0.4855 
      3 O          27.6236   -2.3915    1.5070 O.2       0 UNK        -0.5197 
      4 N          27.0899   -4.3731    0.5736 N.am      1 UNK        -0.4892 
      5 CA         27.1805   -3.9871   -0.8437 C.3       1 UNK         0.0835 
      6 C6         27.4872   -5.2192   -1.7392 C.3       12 UNK        -0.0855 
      7 S7         29.0423   -6.0483   -1.2433 S.3       12 UNK        -0.2931 
      8 C8         30.0514   -5.9983   -2.7670 C.3       12 UNK         0.0378 
      9 C9         30.2309   -4.6093   -3.3776 C.ar      12 UNK        -0.0802 
     10 C10        30.2900   -4.4833   -4.7693 C.ar      12 UNK        -0.0944 
     11 C11        30.4208   -3.2272   -5.3661 C.ar      12 UNK        -0.0787 
     12 C12        30.4813   -2.0887   -4.5604 C.ar      12 UNK        -0.0862 
     13 C13        30.4354   -2.1949   -3.1697 C.ar      12 UNK        -0.0733 
     14 C14        30.3365   -3.4601   -2.5835 C.ar      12 UNK        -0.0832 
     15 C15        30.4714   -0.9480   -2.2989 C.3       12 UNK         0.0240 
     16 S16        28.7861   -0.4460   -1.8276 S.3       12 UNK        -0.2522 
     17 C17        28.5217    1.0829   -2.7955 C.3       12 UNK        -0.0967 
     18 CA         28.2936    0.8645   -4.3139 C.3       5 UNK         0.0660 
     19 N          27.3204   -0.1934   -4.5924 N.am      5 UNK        -0.4015 
     20 C          27.1580   -0.7921   -5.7815 C.2       4 UNK         0.4946 
     21 O          27.7931   -0.4981   -6.7942 O.2       4 UNK        -0.5353 
     22 CA         26.0621   -1.8673   -5.8719 C.3       4 UNK         0.0277 
     23 CB         26.6388   -3.2402   -5.4925 C.3       4 UNK        -0.1981 
     24 N          24.8904   -1.5756   -5.0388 N.am      4 UNK        -0.4209 
     25 C          24.1391   -0.4674   -5.1410 C.2       3 UNK         0.4942 
     26 O          24.3440    0.4213   -5.9673 O.2       3 UNK        -0.5208 
     27 CA         23.0084   -0.2756   -4.1175 C.3       3 UNK         0.0250 
     28 CB         21.6848   -0.8211   -4.6756 C.3       3 UNK        -0.1990 
     29 N          23.2683   -0.8729   -2.8040 N.am      3 UNK        -0.4232 
     30 C          24.3259   -0.6154   -2.0204 C.2       2 UNK         0.4993 
     31 O          25.2480    0.1365   -2.3412 O.2       2 UNK        -0.5286 
     32 CA         24.3790   -1.3178   -0.6520 C.3       2 UNK         0.0209 
     33 CB         23.1027   -2.1120   -0.2883 C.3       2 UNK        -0.1931 
     34 N          25.5608   -2.1743   -0.5238 N.am      2 UNK        -0.4546 
     35 C          25.9238   -3.2068   -1.2987 C.2       1 UNK         0.5154 
     36 O          25.2975   -3.5622   -2.3002 O.2       1 UNK        -0.5181 
     37 C          27.9422    2.1949   -5.0123 C.2       5 UNK         0.5014 
     38 O          28.8421    3.0073   -5.2304 O.2       5 UNK        -0.5248 
     39 N          26.6598    2.4003   -5.3449 N.am      6 UNK        -0.4434 
     40 CA         26.1766    3.5542   -6.1008 C.3       6 UNK         0.0363 
     41 CB         24.8052    3.9826   -5.5520 C.3       6 UNK        -0.1936 
     42 C          26.0807    3.2379   -7.6010 C.2       6 UNK         0.5081 
     43 O          26.4234    4.0916   -8.4193 O.2       6 UNK        -0.5248 
     44 N          25.5884    2.0374   -7.9368 N.am      7 UNK        -0.4718 
     45 CA         25.2990    1.6105   -9.3053 C.3       7 UNK         0.0273 
     46 CB         24.4033    0.3613   -9.2704 C.3       7 UNK        -0.1935 
     47 C          26.5470    1.3507  -10.1622 C.2       7 UNK         0.5018 
     48 O          26.5494    1.7284  -11.3354 O.2       7 UNK        -0.5186 
     49 N          27.5645    0.6880   -9.5953 N.am      8 UNK        -0.4240 
     50 CA         28.7703    0.3042  -10.3296 C.3       8 UNK         0.0235 
     51 CB         29.3990   -0.9324   -9.6738 C.3       8 UNK        -0.2000 
     52 C          29.7869    1.4518  -10.3571 C.2       8 UNK         0.4941 
     53 O          30.1141    2.0011   -9.3036 O.2       8 UNK        -0.5273 
     54 N          30.3170    1.7439  -11.5507 N.am      9 UNK        -0.4262 
     55 CA         31.4385    2.6680  -11.7440 C.3       9 UNK         0.0264 
     56 CB         31.3686    3.2580  -13.1625 C.3       9 UNK        -0.1955 
     57 C          32.8033    1.9922  -11.5116 C.2       9 UNK         0.5031 
     58 O          33.7737    2.6885  -11.2111 O.2       9 UNK        -0.5390 
     59 N          32.8645    0.6622  -11.6802 N.am      10 UNK        -0.4204 
     60 CA         34.0834   -0.1411  -11.5559 C.3       10 UNK         0.0237 
     61 CB         33.8733   -1.4947  -12.2550 C.3       10 UNK        -0.1985 
     62 C          34.5318   -0.3549  -10.1007 C.2       10 UNK         0.4970 
     63 O          35.7364   -0.4113   -9.8493 O.2       10 UNK        -0.4914 
     64 N          33.5691   -0.4901   -9.1798 N.am      11 UNK        -0.4285 
     65 CA         33.8196   -0.6611   -7.7418 C.3       11 UNK         0.1007 
     66 C          34.3176    0.6492   -7.0727 C.2       11 UNK         0.5703 
     67 N          35.1514    0.5416   -6.0468 N.am      11 UNK        -0.7361 
     68 O          33.9284    1.7542   -7.4454 O.2       11 UNK        -0.4986 
     69 C69        32.5779   -1.2210   -7.0027 C.3       12 UNK        -0.0947 
     70 S70        32.1284   -2.9027   -7.5516 S.3       12 UNK        -0.2240 
     71 C71        30.4436   -3.0911   -6.8808 C.3       12 UNK         0.0194 
     72 H72        26.4623   -3.6904    3.5921 H         1 UNK         0.0906 
     73 H73        26.9680   -5.2606    2.9643 H         1 UNK         0.0906 
     74 H74        28.1766   -4.1097    3.5370 H         1 UNK         0.0906 
     75 H75        26.8435   -5.3395    0.7348 H         1 UNK         0.3140 
     76 H76        28.0111   -3.2878   -0.9515 H         1 UNK         0.1085 
     77 H77        27.5519   -4.9259   -2.7880 H         1 UNK         0.0836 
     78 H78        26.6753   -5.9465   -1.6815 H         1 UNK         0.0836 
     79 H79        31.0368   -6.4103   -2.5463 H         1 UNK         0.0731 
     80 H80        29.5921   -6.6706   -3.4936 H         1 UNK         0.0731 
     81 H81        30.2221   -5.3646   -5.3928 H         1 UNK         0.1312 
     82 H82        30.5648   -1.1189   -5.0245 H         1 UNK         0.1406 
     83 H83        30.3121   -3.5440   -1.5058 H         1 UNK         0.1631 
     84 H84        30.9852   -0.1330   -2.8108 H         1 UNK         0.0717 
     85 H85        31.0454   -1.1485   -1.3931 H         1 UNK         0.0717 
     86 H86        27.6569    1.5854   -2.3571 H         1 UNK         0.0934 
     87 H87        29.3686    1.7516   -2.6296 H         1 UNK         0.0934 
     88 H88        29.2424    0.5537   -4.7472 H         1 UNK         0.0739 
     89 H89        26.7197   -0.4502   -3.8169 H         1 UNK         0.3093 
     90 H90        25.7242   -1.9104   -6.9089 H         1 UNK         0.0818 
     91 H91        25.8846   -4.0246   -5.5555 H         1 UNK         0.0819 
     92 H92        27.4525   -3.5178   -6.1635 H         1 UNK         0.0819 
     93 H93        27.0422   -3.2404   -4.4792 H         1 UNK         0.0819 
     94 H94        24.6774   -2.2367   -4.3025 H         1 UNK         0.3041 
     95 H95        22.8968    0.7998   -3.9643 H         1 UNK         0.0784 
     96 H96        21.4573   -0.3755   -5.6454 H         1 UNK         0.0793 
     97 H97        21.7195   -1.9026   -4.8140 H         1 UNK         0.0793 
     98 H98        20.8493   -0.5925   -4.0135 H         1 UNK         0.0793 
     99 H99        22.5766   -1.5236   -2.4609 H         1 UNK         0.3024 
    100 H100       24.4934   -0.5209    0.0848 H         1 UNK         0.1171 
    101 H101       22.2190   -1.4724   -0.3015 H         1 UNK         0.0786 
    102 H102       23.1771   -2.5237    0.7184 H         1 UNK         0.0786 
    103 H103       22.9251   -2.9467   -0.9677 H         1 UNK         0.0786 
    104 H104       26.1825   -1.9593    0.2514 H         1 UNK         0.2977 
    105 H105       25.9868    1.6666   -5.1613 H         1 UNK         0.3127 
    106 H106       26.8625    4.3955   -5.9787 H         1 UNK         0.0770 
    107 H107       24.0629    3.1887   -5.6445 H         1 UNK         0.0814 
    108 H108       24.4238    4.8500   -6.0924 H         1 UNK         0.0814 
    109 H109       24.8695    4.2592   -4.4996 H         1 UNK         0.0814 
    110 H110       25.2736    1.4125   -7.1975 H         1 UNK         0.2983 
    111 H111       24.7355    2.4118   -9.7889 H         1 UNK         0.0947 
    112 H112       24.1471    0.0342  -10.2790 H         1 UNK         0.0806 
    113 H113       23.4679    0.5588   -8.7463 H         1 UNK         0.0806 
    114 H114       24.8956   -0.4734   -8.7704 H         1 UNK         0.0806 
    115 H115       27.5260    0.4394   -8.6109 H         1 UNK         0.3000 
    116 H116       28.4928    0.0340  -11.3513 H         1 UNK         0.0850 
    117 H117       30.2202   -1.3254  -10.2741 H         1 UNK         0.0810 
    118 H118       28.6727   -1.7352   -9.5455 H         1 UNK         0.0810 
    119 H119       29.8025   -0.6807   -8.6941 H         1 UNK         0.0810 
    120 H120       29.9640    1.2757  -12.3739 H         1 UNK         0.3040 
    121 H121       31.3523    3.4915  -11.0313 H         1 UNK         0.0766 
    122 H122       32.1768    3.9721  -13.3274 H         1 UNK         0.0812 
    123 H123       30.4310    3.7903  -13.3246 H         1 UNK         0.0812 
    124 H124       31.4548    2.4866  -13.9289 H         1 UNK         0.0812 
    125 H125       32.0231    0.1749  -11.9483 H         1 UNK         0.3205 
    126 H126       34.8899    0.3836  -12.0733 H         1 UNK         0.0754 
    127 H127       34.7761   -2.1050  -12.2018 H         1 UNK         0.0769 
    128 H128       33.6361   -1.3639  -13.3112 H         1 UNK         0.0769 
    129 H129       33.0662   -2.0680  -11.7967 H         1 UNK         0.0769 
    130 H130       32.6054   -0.3986   -9.4578 H         1 UNK         0.2981 
    131 H131       34.6199   -1.3975   -7.6397 H         1 UNK         0.0541 
    132 H132       35.4695   -0.3590   -5.7242 H         1 UNK         0.3459 
    133 H133       35.4751    1.3798   -5.5900 H         1 UNK         0.3459 
    134 H134       31.7229   -0.5548   -7.1314 H         1 UNK         0.0612 
    135 H135       32.7778   -1.2742   -5.9313 H         1 UNK         0.0612 
    136 H136       29.8260   -2.2444   -7.1696 H         1 UNK         0.0624 
    137 H137       29.9846   -3.9665   -7.3424 H         1 UNK         0.0624 
@<TRIPOS>BOND
     1    1    2 1    
     2    1   72 1    
     3    1   73 1    
     4    1   74 1    
     5    2    3 2    
     6    2    4 am   BACKBONE|DICT|INTERRES
     7    4    5 1    
     8    4   75 1    
     9    5    6 1    
    10    5   35 1    
    11    5   76 1    
    12    6    7 1    
    13    6   77 1    
    14    6   78 1    
    15    7    8 1    
    16    8    9 1    
    17    8   79 1    
    18    8   80 1    
    19    9   10 ar   
    20    9   14 ar   
    21   10   11 ar   
    22   10   81 1    
    23   11   12 ar   
    24   11   71 1    
    25   12   13 ar   
    26   12   82 1    
    27   13   14 ar   
    28   13   15 1    
    29   14   83 1    
    30   15   16 1    
    31   15   84 1    
    32   15   85 1    
    33   16   17 1    
    34   17   18 1    
    35   17   86 1    
    36   17   87 1    
    37   18   19 1    
    38   18   37 1    
    39   18   88 1    
    40   19   20 am   BACKBONE|DICT|INTERRES
    41   19   89 1    
    42   20   21 2    
    43   20   22 1    
    44   22   23 1    
    45   22   24 1    
    46   22   90 1    
    47   23   91 1    
    48   23   92 1    
    49   23   93 1    
    50   24   25 am   BACKBONE|DICT|INTERRES
    51   24   94 1    
    52   25   26 2    
    53   25   27 1    
    54   27   28 1    
    55   27   29 1    
    56   27   95 1    
    57   28   96 1    
    58   28   97 1    
    59   28   98 1    
    60   29   30 am   BACKBONE|DICT|INTERRES
    61   29   99 1    
    62   30   31 2    
    63   30   32 1    
    64   32   33 1    
    65   32   34 1    
    66   32  100 1    
    67   33  101 1    
    68   33  102 1    
    69   33  103 1    
    70   34   35 am   BACKBONE|DICT|INTERRES
    71   34  104 1    
    72   35   36 2    
    73   37   38 2    
    74   37   39 am   BACKBONE|DICT|INTERRES
    75   39   40 1    
    76   39  105 1    
    77   40   41 1    
    78   40   42 1    
    79   40  106 1    
    80   41  107 1    
    81   41  108 1    
    82   41  109 1    
    83   42   43 2    
    84   42   44 am   BACKBONE|DICT|INTERRES
    85   44   45 1    
    86   44  110 1    
    87   45   46 1    
    88   45   47 1    
    89   45  111 1    
    90   46  112 1    
    91   46  113 1    
    92   46  114 1    
    93   47   48 2    
    94   47   49 am   BACKBONE|DICT|INTERRES
    95   49   50 1    
    96   49  115 1    
    97   50   51 1    
    98   50   52 1    
    99   50  116 1    
   100   51  117 1    
   101   51  118 1    
   102   51  119 1    
   103   52   53 2    
   104   52   54 am   BACKBONE|DICT|INTERRES
   105   54   55 1    
   106   54  120 1    
   107   55   56 1    
   108   55   57 1    
   109   55  121 1    
   110   56  122 1    
   111   56  123 1    
   112   56  124 1    
   113   57   58 2    
   114   57   59 am   BACKBONE|DICT|INTERRES
   115   59   60 1    
   116   59  125 1    
   117   60   61 1    
   118   60   62 1    
   119   60  126 1    
   120   61  127 1    
   121   61  128 1    
   122   61  129 1    
   123   62   63 2    
   124   62   64 am   BACKBONE|DICT|INTERRES
   125   64   65 1    
   126   64  130 1    
   127   65   66 1    
   128   65   69 1    
   129   65  131 1    
   130   66   67 am   BACKBONE|DICT|INTERRES
   131   66   68 2    
   132   67  132 1    
   133   67  133 1    
   134   69   70 1    
   135   69  134 1    
   136   69  135 1    
   137   70   71 1    
   138   71  136 1    
   139   71  137 1    
@<TRIPOS>SUBSTRUCTURE
     1 UNK         1 GROUP             0       ****    0 ROOT    
