@<TRIPOS>MOLECULE
3R137
137   139    1
SMALL
USER_CHARGES


@<TRIPOS>ATOM
      1 CA         30.8244   -4.9685   -6.9969 C.3       0 UNK        -0.2020 
      2 C          29.7229   -5.4492   -6.0637 C.2       0 UNK         0.4855 
      3 O          29.4395   -6.6457   -6.0107 O.2       0 UNK        -0.5197 
      4 N          29.0997   -4.5220   -5.3252 N.am      1 UNK        -0.4892 
      5 CA         28.0287   -4.7920   -4.3539 C.3       1 UNK         0.0835 
      6 C6         27.9026   -3.6308   -3.3300 C.3       12 UNK        -0.0855 
      7 S7         29.0242   -3.8443   -1.9062 S.3       12 UNK        -0.2931 
      8 C8         30.6183   -3.2065   -2.5168 C.3       12 UNK         0.0378 
      9 C9         30.6045   -1.7052   -2.7692 C.ar      12 UNK        -0.0802 
     10 C10        30.7916   -1.2058   -4.0609 C.ar      12 UNK        -0.0944 
     11 C11        30.8352    0.1720   -4.2941 C.ar      12 UNK        -0.0787 
     12 C12        30.6975    1.0532   -3.2155 C.ar      12 UNK        -0.0862 
     13 C13        30.4748    0.5673   -1.9237 C.ar      12 UNK        -0.0733 
     14 C14        30.4391   -0.8130   -1.7057 C.ar      12 UNK        -0.0832 
     15 C15        30.2682    1.5281   -0.7612 C.3       12 UNK         0.0240 
     16 S16        28.5032    1.9200   -0.5179 S.3       12 UNK        -0.2522 
     17 C17        28.2020    3.1515   -1.8309 C.3       12 UNK        -0.0967 
     18 CA         27.5447    2.5319   -3.0876 C.3       5 UNK         0.0660 
     19 N          26.2104    1.9835   -2.8191 N.am      5 UNK        -0.4015 
     20 C          25.4603    1.3422   -3.7255 C.2       4 UNK         0.4946 
     21 O          25.8165    1.1532   -4.8922 O.2       4 UNK        -0.5353 
     22 CA         24.0727    0.8625   -3.2574 C.3       4 UNK         0.0277 
     23 CB         23.1129    2.0560   -3.1114 C.3       4 UNK        -0.1981 
     24 N          23.4838   -0.0966   -4.1963 N.am      4 UNK        -0.4209 
     25 C          23.9460   -1.3338   -4.4169 C.2       3 UNK         0.4942 
     26 O          24.8236   -1.8687   -3.7337 O.2       3 UNK        -0.5208 
     27 CA         23.3533   -2.0924   -5.6163 C.3       3 UNK         0.0250 
     28 CB         22.9667   -1.1668   -6.7932 C.3       3 UNK        -0.1990 
     29 N          24.3388   -3.0778   -6.0505 N.am      3 UNK        -0.4232 
     30 C          24.1093   -4.1714   -6.7833 C.2       2 UNK         0.4993 
     31 O          22.9970   -4.4875   -7.2076 O.2       2 UNK        -0.5286 
     32 CA         25.3208   -5.0635   -7.1204 C.3       2 UNK         0.0209 
     33 CB         25.6875   -4.9266   -8.6077 C.3       2 UNK        -0.1931 
     34 N          26.5200   -4.7945   -6.3172 N.am      2 UNK        -0.4546 
     35 C          26.6709   -5.1128   -5.0229 C.2       1 UNK         0.5154 
     36 O          25.7860   -5.6518   -4.3571 O.2       1 UNK        -0.5181 
     37 C          27.5327    3.5440   -4.2522 C.2       5 UNK         0.5014 
     38 O          26.5810    4.3173   -4.3863 O.2       5 UNK        -0.5248 
     39 N          28.5780    3.4815   -5.0890 N.am      6 UNK        -0.4434 
     40 CA         28.7702    4.1684   -6.3743 C.3       6 UNK         0.0363 
     41 CB         28.6732    5.7013   -6.2471 C.3       6 UNK        -0.1936 
     42 C          27.8611    3.6317   -7.4950 C.2       6 UNK         0.5081 
     43 O          28.3595    3.3713   -8.5895 O.2       6 UNK        -0.5248 
     44 N          26.5673    3.4353   -7.2052 N.am      7 UNK        -0.4718 
     45 CA         25.5644    2.8795   -8.1216 C.3       7 UNK         0.0273 
     46 CB         24.1707    2.9849   -7.4809 C.3       7 UNK        -0.1935 
     47 C          25.8582    1.4287   -8.5434 C.2       7 UNK         0.5018 
     48 O          25.5934    1.0688   -9.6908 O.2       7 UNK        -0.5186 
     49 N          26.4142    0.6363   -7.6161 N.am      8 UNK        -0.4240 
     50 CA         26.8556   -0.7454   -7.8192 C.3       8 UNK         0.0235 
     51 CB         27.3760   -1.2986   -6.4819 C.3       8 UNK        -0.2000 
     52 C          27.9490   -0.9148   -8.8880 C.2       8 UNK         0.4941 
     53 O          27.9674   -1.9497   -9.5556 O.2       8 UNK        -0.5273 
     54 N          28.8396    0.0857   -8.9924 N.am      9 UNK        -0.4262 
     55 CA         30.1024    0.1062   -9.7447 C.3       9 UNK         0.0264 
     56 CB         29.8576   -0.1061  -11.2537 C.3       9 UNK        -0.1955 
     57 C          31.1521   -0.8821   -9.1915 C.2       9 UNK         0.5031 
     58 O          30.8330   -1.7426   -8.3682 O.2       9 UNK        -0.5390 
     59 N          32.4057   -0.7156   -9.6418 N.am      10 UNK        -0.4204 
     60 CA         33.5883   -1.5070   -9.2661 C.3       10 UNK         0.0237 
     61 CB         33.4867   -2.9369   -9.8416 C.3       10 UNK        -0.1985 
     62 C          33.8617   -1.4902   -7.7472 C.2       10 UNK         0.4970 
     63 O          33.9834   -2.5480   -7.1263 O.2       10 UNK        -0.4914 
     64 N          33.9291   -0.2795   -7.1766 N.am      11 UNK        -0.4285 
     65 CA         34.1109   -0.0448   -5.7332 C.3       11 UNK         0.1007 
     66 C          35.5109   -0.4332   -5.1708 C.2       11 UNK         0.5703 
     67 N          36.5256   -0.6521   -5.9994 N.am      11 UNK        -0.7361 
     68 O          35.6779   -0.5391   -3.9583 O.2       11 UNK        -0.4986 
     69 C69        33.7544    1.4136   -5.3290 C.3       12 UNK        -0.0947 
     70 S70        32.1500    2.0708   -5.9140 S.3       12 UNK        -0.2240 
     71 C71        30.9900    0.6781   -5.7240 C.3       12 UNK         0.0194 
     72 H72        31.1321   -3.9466   -6.7739 H         1 UNK         0.0906 
     73 H73        31.7027   -5.6071   -6.9071 H         1 UNK         0.0906 
     74 H74        30.4833   -5.0000   -8.0314 H         1 UNK         0.0906 
     75 H75        29.3791   -3.5566   -5.4134 H         1 UNK         0.3140 
     76 H76        28.2932   -5.7027   -3.8108 H         1 UNK         0.1085 
     77 H77        26.8969   -3.5852   -2.9060 H         1 UNK         0.0836 
     78 H78        28.0605   -2.6565   -3.7955 H         1 UNK         0.0836 
     79 H79        30.9135   -3.7553   -3.4114 H         1 UNK         0.0731 
     80 H80        31.3835   -3.4245   -1.7705 H         1 UNK         0.0731 
     81 H81        30.9147   -1.8903   -4.8888 H         1 UNK         0.1312 
     82 H82        30.7423    2.1201   -3.3799 H         1 UNK         0.1406 
     83 H83        30.2787   -1.1967   -0.7070 H         1 UNK         0.1631 
     84 H84        30.8415    2.4443   -0.9102 H         1 UNK         0.0717 
     85 H85        30.6537    1.0806    0.1562 H         1 UNK         0.0717 
     86 H86        27.5669    3.9400   -1.4222 H         1 UNK         0.0934 
     87 H87        29.1475    3.6367   -2.0808 H         1 UNK         0.0934 
     88 H88        28.1403    1.6771   -3.4078 H         1 UNK         0.0739 
     89 H89        25.8530    2.1190   -1.8855 H         1 UNK         0.3093 
     90 H90        24.1865    0.3715   -2.2885 H         1 UNK         0.0818 
     91 H91        23.4826    2.7749   -2.3792 H         1 UNK         0.0819 
     92 H92        22.9880    2.5902   -4.0545 H         1 UNK         0.0819 
     93 H93        22.1273    1.7346   -2.7740 H         1 UNK         0.0819 
     94 H94        22.7859    0.2683   -4.8265 H         1 UNK         0.3041 
     95 H95        22.4645   -2.6191   -5.2635 H         1 UNK         0.0784 
     96 H96        22.1303   -0.5173   -6.5339 H         1 UNK         0.0793 
     97 H97        23.7994   -0.5309   -7.0950 H         1 UNK         0.0793 
     98 H98        22.6554   -1.7383   -7.6676 H         1 UNK         0.0793 
     99 H99        25.2589   -2.9435   -5.6540 H         1 UNK         0.3024 
    100 H100       25.0143   -6.0958   -6.9360 H         1 UNK         0.1171 
    101 H101       26.0134   -3.9146   -8.8519 H         1 UNK         0.0786 
    102 H102       26.4877   -5.6131   -8.8851 H         1 UNK         0.0786 
    103 H103       24.8324   -5.1557   -9.2453 H         1 UNK         0.0786 
    104 H104       27.3103   -4.3942   -6.8007 H         1 UNK         0.2977 
    105 H105       29.2929    2.8001   -4.8819 H         1 UNK         0.3127 
    106 H106       29.7944    3.9398   -6.6733 H         1 UNK         0.0770 
    107 H107       27.6617    6.0339   -6.0133 H         1 UNK         0.0814 
    108 H108       28.9594    6.1835   -7.1826 H         1 UNK         0.0814 
    109 H109       29.3393    6.0781   -5.4712 H         1 UNK         0.0814 
    110 H110       26.2597    3.6657   -6.2651 H         1 UNK         0.2983 
    111 H111       25.5728    3.4894   -9.0275 H         1 UNK         0.0947 
    112 H112       23.4020    2.6037   -8.1546 H         1 UNK         0.0806 
    113 H113       23.9163    4.0198   -7.2518 H         1 UNK         0.0806 
    114 H114       24.1059    2.4113   -6.5560 H         1 UNK         0.0806 
    115 H115       26.4582    0.9894   -6.6619 H         1 UNK         0.3000 
    116 H116       25.9892   -1.3315   -8.1322 H         1 UNK         0.0850 
    117 H117       28.2017   -0.7022   -6.0933 H         1 UNK         0.0810 
    118 H118       27.7436   -2.3161   -6.5999 H         1 UNK         0.0810 
    119 H119       26.5985   -1.3112   -5.7215 H         1 UNK         0.0810 
    120 H120       28.6750    0.9010   -8.4187 H         1 UNK         0.3040 
    121 H121       30.5059    1.1105   -9.6057 H         1 UNK         0.0766 
    122 H122       29.5547   -1.1294  -11.4775 H         1 UNK         0.0812 
    123 H123       29.0802    0.5615  -11.6257 H         1 UNK         0.0812 
    124 H124       30.7585    0.0955  -11.8337 H         1 UNK         0.0812 
    125 H125       32.5762    0.0306  -10.3022 H         1 UNK         0.3205 
    126 H126       34.4476   -1.0263   -9.7363 H         1 UNK         0.0754 
    127 H127       34.4004   -3.5012   -9.6510 H         1 UNK         0.0769 
    128 H128       33.3360   -2.9202  -10.9209 H         1 UNK         0.0769 
    129 H129       32.6617   -3.4954   -9.3974 H         1 UNK         0.0769 
    130 H130       33.8188    0.5441   -7.7486 H         1 UNK         0.2981 
    131 H131       33.4126   -0.7068   -5.2202 H         1 UNK         0.0541 
    132 H132       37.4250   -0.9054   -5.6219 H         1 UNK         0.3459 
    133 H133       36.4010   -0.5678   -6.9950 H         1 UNK         0.3459 
    134 H134       34.5262    2.0970   -5.6877 H         1 UNK         0.0612 
    135 H135       33.7571    1.5059   -4.2412 H         1 UNK         0.0612 
    136 H136       30.0124    0.9914   -6.0903 H         1 UNK         0.0624 
    137 H137       31.3075   -0.1312   -6.3775 H         1 UNK         0.0624 
@<TRIPOS>BOND
     1    1    2 1    
     2    1   72 1    
     3    1   73 1    
     4    1   74 1    
     5    2    3 2    
     6    2    4 am   BACKBONE|DICT|INTERRES
     7    4    5 1    
     8    4   75 1    
     9    5    6 1    
    10    5   35 1    
    11    5   76 1    
    12    6    7 1    
    13    6   77 1    
    14    6   78 1    
    15    7    8 1    
    16    8    9 1    
    17    8   79 1    
    18    8   80 1    
    19    9   10 ar   
    20    9   14 ar   
    21   10   11 ar   
    22   10   81 1    
    23   11   12 ar   
    24   11   71 1    
    25   12   13 ar   
    26   12   82 1    
    27   13   14 ar   
    28   13   15 1    
    29   14   83 1    
    30   15   16 1    
    31   15   84 1    
    32   15   85 1    
    33   16   17 1    
    34   17   18 1    
    35   17   86 1    
    36   17   87 1    
    37   18   19 1    
    38   18   37 1    
    39   18   88 1    
    40   19   20 am   BACKBONE|DICT|INTERRES
    41   19   89 1    
    42   20   21 2    
    43   20   22 1    
    44   22   23 1    
    45   22   24 1    
    46   22   90 1    
    47   23   91 1    
    48   23   92 1    
    49   23   93 1    
    50   24   25 am   BACKBONE|DICT|INTERRES
    51   24   94 1    
    52   25   26 2    
    53   25   27 1    
    54   27   28 1    
    55   27   29 1    
    56   27   95 1    
    57   28   96 1    
    58   28   97 1    
    59   28   98 1    
    60   29   30 am   BACKBONE|DICT|INTERRES
    61   29   99 1    
    62   30   31 2    
    63   30   32 1    
    64   32   33 1    
    65   32   34 1    
    66   32  100 1    
    67   33  101 1    
    68   33  102 1    
    69   33  103 1    
    70   34   35 am   BACKBONE|DICT|INTERRES
    71   34  104 1    
    72   35   36 2    
    73   37   38 2    
    74   37   39 am   BACKBONE|DICT|INTERRES
    75   39   40 1    
    76   39  105 1    
    77   40   41 1    
    78   40   42 1    
    79   40  106 1    
    80   41  107 1    
    81   41  108 1    
    82   41  109 1    
    83   42   43 2    
    84   42   44 am   BACKBONE|DICT|INTERRES
    85   44   45 1    
    86   44  110 1    
    87   45   46 1    
    88   45   47 1    
    89   45  111 1    
    90   46  112 1    
    91   46  113 1    
    92   46  114 1    
    93   47   48 2    
    94   47   49 am   BACKBONE|DICT|INTERRES
    95   49   50 1    
    96   49  115 1    
    97   50   51 1    
    98   50   52 1    
    99   50  116 1    
   100   51  117 1    
   101   51  118 1    
   102   51  119 1    
   103   52   53 2    
   104   52   54 am   BACKBONE|DICT|INTERRES
   105   54   55 1    
   106   54  120 1    
   107   55   56 1    
   108   55   57 1    
   109   55  121 1    
   110   56  122 1    
   111   56  123 1    
   112   56  124 1    
   113   57   58 2    
   114   57   59 am   BACKBONE|DICT|INTERRES
   115   59   60 1    
   116   59  125 1    
   117   60   61 1    
   118   60   62 1    
   119   60  126 1    
   120   61  127 1    
   121   61  128 1    
   122   61  129 1    
   123   62   63 2    
   124   62   64 am   BACKBONE|DICT|INTERRES
   125   64   65 1    
   126   64  130 1    
   127   65   66 1    
   128   65   69 1    
   129   65  131 1    
   130   66   67 am   BACKBONE|DICT|INTERRES
   131   66   68 2    
   132   67  132 1    
   133   67  133 1    
   134   69   70 1    
   135   69  134 1    
   136   69  135 1    
   137   70   71 1    
   138   71  136 1    
   139   71  137 1    
@<TRIPOS>SUBSTRUCTURE
     1 UNK         1 GROUP             0       ****    0 ROOT    
