@<TRIPOS>MOLECULE
3R137
137   139    1
SMALL
USER_CHARGES


@<TRIPOS>ATOM
      1 CA         26.2967   -0.0130    1.9360 C.3       0 UNK        -0.2020 
      2 C          26.2396   -0.6541    0.5582 C.2       0 UNK         0.4855 
      3 O          25.1521   -0.8048    0.0004 O.2       0 UNK        -0.5197 
      4 N          27.4052   -1.0101   -0.0066 N.am      1 UNK        -0.4892 
      5 CA         27.5722   -1.6931   -1.3020 C.3       1 UNK         0.0835 
      6 C6         27.0949   -3.1701   -1.2213 C.3       12 UNK        -0.0855 
      7 S7         27.6387   -4.2469   -2.5877 S.3       12 UNK        -0.2931 
      8 C8         29.4314   -4.4618   -2.3138 C.3       12 UNK         0.0378 
      9 C9         30.1924   -4.3126   -3.6269 C.ar      12 UNK        -0.0802 
     10 C10        31.2802   -3.4400   -3.7354 C.ar      12 UNK        -0.0944 
     11 C11        31.9264   -3.2528   -4.9640 C.ar      12 UNK        -0.0787 
     12 C12        31.4649   -3.9474   -6.0917 C.ar      12 UNK        -0.0862 
     13 C13        30.3768   -4.8189   -5.9953 C.ar      12 UNK        -0.0733 
     14 C14        29.7799   -5.0292   -4.7528 C.ar      12 UNK        -0.0832 
     15 C15        29.8277   -5.5284   -7.2258 C.3       12 UNK         0.0240 
     16 S16        28.6829   -4.4807   -8.1905 S.3       12 UNK        -0.2522 
     17 C17        27.2782   -4.1893   -7.0443 C.3       12 UNK        -0.0967 
     18 CA         26.6574   -2.7585   -7.0524 C.3       5 UNK         0.0660 
     19 N          25.6805   -2.5861   -5.9678 N.am      5 UNK        -0.4015 
     20 C          24.4418   -3.0974   -6.0241 C.2       4 UNK         0.4946 
     21 O          23.9825   -3.6500   -7.0253 O.2       4 UNK        -0.5353 
     22 CA         23.5568   -3.0230   -4.7715 C.3       4 UNK         0.0277 
     23 CB         23.9036   -4.1608   -3.7987 C.3       4 UNK        -0.1981 
     24 N          23.6452   -1.7424   -4.0669 N.am      4 UNK        -0.4209 
     25 C          22.6110   -0.9025   -3.9012 C.2       3 UNK         0.4942 
     26 O          21.5027   -1.0737   -4.4117 O.2       3 UNK        -0.5208 
     27 CA         22.8102    0.3238   -2.9899 C.3       3 UNK         0.0250 
     28 CB         22.1282    0.0959   -1.6307 C.3       3 UNK        -0.1990 
     29 N          24.2139    0.6628   -2.7629 N.am      3 UNK        -0.4232 
     30 C          25.0009    1.2529   -3.6727 C.2       2 UNK         0.4993 
     31 O          24.6104    1.6221   -4.7793 O.2       2 UNK        -0.5286 
     32 CA         26.4833    1.4326   -3.3071 C.3       2 UNK         0.0209 
     33 CB         26.7430    2.8508   -2.7755 C.3       2 UNK        -0.1931 
     34 N          26.9902    0.4565   -2.3384 N.am      2 UNK        -0.4546 
     35 C          26.9942   -0.8770   -2.4883 C.2       1 UNK         0.5154 
     36 O          26.5700   -1.4335   -3.5062 O.2       1 UNK        -0.5181 
     37 C          27.7030   -1.6293   -7.0839 C.2       5 UNK         0.5014 
     38 O          28.0322   -1.1614   -8.1760 O.2       5 UNK        -0.5248 
     39 N          28.2198   -1.2017   -5.9217 N.am      6 UNK        -0.4434 
     40 CA         29.4357   -0.3787   -5.8287 C.3       6 UNK         0.0363 
     41 CB         29.8666   -0.2379   -4.3616 C.3       6 UNK        -0.1936 
     42 C          29.3641    1.0032   -6.5049 C.2       6 UNK         0.5081 
     43 O          30.4074    1.5440   -6.8728 O.2       6 UNK        -0.5248 
     44 N          28.1522    1.5479   -6.6739 N.am      7 UNK        -0.4718 
     45 CA         27.9109    2.8049   -7.3857 C.3       7 UNK         0.0273 
     46 CB         26.5476    3.3770   -6.9683 C.3       7 UNK        -0.1935 
     47 C          27.9777    2.6389   -8.9131 C.2       7 UNK         0.5018 
     48 O          28.4088    3.5653   -9.5991 O.2       7 UNK        -0.5186 
     49 N          27.5649    1.4671   -9.4166 N.am      8 UNK        -0.4240 
     50 CA         27.6187    1.1085  -10.8351 C.3       8 UNK         0.0235 
     51 CB         26.5544    0.0412  -11.1397 C.3       8 UNK        -0.2000 
     52 C          29.0171    0.6119  -11.2265 C.2       8 UNK         0.4941 
     53 O          29.5108    0.9680  -12.2967 O.2       8 UNK        -0.5273 
     54 N          29.6400   -0.1751  -10.3381 N.am      9 UNK        -0.4262 
     55 CA         31.0110   -0.6726  -10.4739 C.3       9 UNK         0.0264 
     56 CB         31.1950   -1.8758   -9.5367 C.3       9 UNK        -0.1955 
     57 C          32.0920    0.4015  -10.2317 C.2       9 UNK         0.5031 
     58 O          33.2478    0.1654  -10.5864 O.2       9 UNK        -0.5390 
     59 N          31.7007    1.5515   -9.6591 N.am      10 UNK        -0.4204 
     60 CA         32.5195    2.7282   -9.3420 C.3       10 UNK         0.0237 
     61 CB         33.0568    3.3930  -10.6278 C.3       10 UNK        -0.1985 
     62 C          33.6184    2.4132   -8.3105 C.2       10 UNK         0.4970 
     63 O          34.7942    2.7058   -8.5391 O.2       10 UNK        -0.4914 
     64 N          33.1982    1.8156   -7.1933 N.am      11 UNK        -0.4285 
     65 CA         34.0492    1.3632   -6.0832 C.3       11 UNK         0.1007 
     66 C          33.4632    1.6785   -4.6779 C.2       11 UNK         0.5703 
     67 N          32.3197    2.3452   -4.5649 N.am      11 UNK        -0.7361 
     68 O          34.0739    1.3421   -3.6662 O.2       11 UNK        -0.4986 
     69 C69        34.4852   -0.1189   -6.2555 C.3       12 UNK        -0.0947 
     70 S70        33.0855   -1.2539   -6.5384 S.3       12 UNK        -0.2240 
     71 C71        33.1207   -2.3033   -5.0514 C.3       12 UNK         0.0194 
     72 H72        25.7256   -0.6077    2.6484 H         1 UNK         0.0906 
     73 H73        27.3181    0.0714    2.3066 H         1 UNK         0.0906 
     74 H74        25.8635    0.9863    1.9027 H         1 UNK         0.0906 
     75 H75        28.2630   -0.8382    0.5017 H         1 UNK         0.3140 
     76 H76        28.6477   -1.7062   -1.4801 H         1 UNK         0.1085 
     77 H77        27.4456   -3.6234   -0.2926 H         1 UNK         0.0836 
     78 H78        26.0051   -3.2085   -1.1739 H         1 UNK         0.0836 
     79 H79        29.6144   -5.4544   -1.9005 H         1 UNK         0.0731 
     80 H80        29.7916   -3.7463   -1.5742 H         1 UNK         0.0731 
     81 H81        31.6160   -2.8931   -2.8650 H         1 UNK         0.1312 
     82 H82        31.9412   -3.8001   -7.0511 H         1 UNK         0.1406 
     83 H83        28.9477   -5.7150   -4.6697 H         1 UNK         0.1631 
     84 H84        29.3162   -6.4497   -6.9425 H         1 UNK         0.0717 
     85 H85        30.6548   -5.8277   -7.8711 H         1 UNK         0.0717 
     86 H86        26.5058   -4.9200   -7.2881 H         1 UNK         0.0934 
     87 H87        27.5825   -4.4289   -6.0286 H         1 UNK         0.0934 
     88 H88        26.1202   -2.6526   -7.9979 H         1 UNK         0.0739 
     89 H89        26.0016   -2.1465   -5.1088 H         1 UNK         0.3093 
     90 H90        22.5331   -3.1966   -5.1102 H         1 UNK         0.0818 
     91 H91        23.1996   -4.1980   -2.9673 H         1 UNK         0.0819 
     92 H92        23.8689   -5.1305   -4.2972 H         1 UNK         0.0819 
     93 H93        24.9025   -4.0420   -3.3832 H         1 UNK         0.0819 
     94 H94        24.5381   -1.5130   -3.6452 H         1 UNK         0.3041 
     95 H95        22.3246    1.1732   -3.4756 H         1 UNK         0.0784 
     96 H96        21.0654   -0.1157   -1.7563 H         1 UNK         0.0793 
     97 H97        22.5677   -0.7473   -1.0959 H         1 UNK         0.0793 
     98 H98        22.2090    0.9761   -0.9926 H         1 UNK         0.0793 
     99 H99        24.6173    0.3673   -1.8811 H         1 UNK         0.3024 
    100 H100       27.0496    1.3036   -4.2278 H         1 UNK         0.1171 
    101 H101       27.8090    3.0348   -2.6406 H         1 UNK         0.0786 
    102 H102       26.3720    3.6062   -3.4693 H         1 UNK         0.0786 
    103 H103       26.2476    3.0195   -1.8185 H         1 UNK         0.0786 
    104 H104       27.3452    0.8274   -1.4686 H         1 UNK         0.2977 
    105 H105       27.8704   -1.5877   -5.0526 H         1 UNK         0.3127 
    106 H106       30.2128   -0.9430   -6.3444 H         1 UNK         0.0770 
    107 H107       29.3260    0.5553   -3.8472 H         1 UNK         0.0814 
    108 H108       30.9264    0.0056   -4.3007 H         1 UNK         0.0814 
    109 H109       29.7249   -1.1634   -3.8068 H         1 UNK         0.0814 
    110 H110       27.3434    1.0262   -6.3704 H         1 UNK         0.2983 
    111 H111       28.6824    3.5233   -7.0984 H         1 UNK         0.0947 
    112 H112       26.3449    4.3179   -7.4818 H         1 UNK         0.0806 
    113 H113       26.5144    3.5814   -5.8989 H         1 UNK         0.0806 
    114 H114       25.7304    2.6940   -7.2039 H         1 UNK         0.0806 
    115 H115       27.3136    0.7248   -8.7751 H         1 UNK         0.3000 
    116 H116       27.3939    1.9931  -11.4354 H         1 UNK         0.0850 
    117 H117       26.5623   -0.2244  -12.1977 H         1 UNK         0.0810 
    118 H118       25.5532    0.4023  -10.9042 H         1 UNK         0.0810 
    119 H119       26.7216   -0.8757  -10.5729 H         1 UNK         0.0810 
    120 H120       29.1251   -0.4729   -9.5107 H         1 UNK         0.3040 
    121 H121       31.1446   -1.0249  -11.4989 H         1 UNK         0.0766 
    122 H122       30.9385   -1.6259   -8.5081 H         1 UNK         0.0812 
    123 H123       32.2258   -2.2326   -9.5430 H         1 UNK         0.0812 
    124 H124       30.5623   -2.7093   -9.8405 H         1 UNK         0.0812 
    125 H125       30.7375    1.6059   -9.3589 H         1 UNK         0.3205 
    126 H126       31.8481    3.4426   -8.8625 H         1 UNK         0.0754 
    127 H127       33.5688    4.3282  -10.3979 H         1 UNK         0.0769 
    128 H128       32.2472    3.6281  -11.3189 H         1 UNK         0.0769 
    129 H129       33.7687    2.7536  -11.1505 H         1 UNK         0.0769 
    130 H130       32.2052    1.6119   -7.0934 H         1 UNK         0.2981 
    131 H131       34.9626    1.9600   -6.1054 H         1 UNK         0.0541 
    132 H132       31.7859    2.6006   -5.3818 H         1 UNK         0.3459 
    133 H133       31.9702    2.5620   -3.6458 H         1 UNK         0.3459 
    134 H134       35.0807   -0.4589   -5.4065 H         1 UNK         0.0612 
    135 H135       35.1423   -0.1983   -7.1225 H         1 UNK         0.0612 
    136 H136       34.0407   -2.8887   -5.0486 H         1 UNK         0.0624 
    137 H137       33.1544   -1.6545   -4.1746 H         1 UNK         0.0624 
@<TRIPOS>BOND
     1    1    2 1    
     2    1   72 1    
     3    1   73 1    
     4    1   74 1    
     5    2    3 2    
     6    2    4 am   BACKBONE|DICT|INTERRES
     7    4    5 1    
     8    4   75 1    
     9    5    6 1    
    10    5   35 1    
    11    5   76 1    
    12    6    7 1    
    13    6   77 1    
    14    6   78 1    
    15    7    8 1    
    16    8    9 1    
    17    8   79 1    
    18    8   80 1    
    19    9   10 ar   
    20    9   14 ar   
    21   10   11 ar   
    22   10   81 1    
    23   11   12 ar   
    24   11   71 1    
    25   12   13 ar   
    26   12   82 1    
    27   13   14 ar   
    28   13   15 1    
    29   14   83 1    
    30   15   16 1    
    31   15   84 1    
    32   15   85 1    
    33   16   17 1    
    34   17   18 1    
    35   17   86 1    
    36   17   87 1    
    37   18   19 1    
    38   18   37 1    
    39   18   88 1    
    40   19   20 am   BACKBONE|DICT|INTERRES
    41   19   89 1    
    42   20   21 2    
    43   20   22 1    
    44   22   23 1    
    45   22   24 1    
    46   22   90 1    
    47   23   91 1    
    48   23   92 1    
    49   23   93 1    
    50   24   25 am   BACKBONE|DICT|INTERRES
    51   24   94 1    
    52   25   26 2    
    53   25   27 1    
    54   27   28 1    
    55   27   29 1    
    56   27   95 1    
    57   28   96 1    
    58   28   97 1    
    59   28   98 1    
    60   29   30 am   BACKBONE|DICT|INTERRES
    61   29   99 1    
    62   30   31 2    
    63   30   32 1    
    64   32   33 1    
    65   32   34 1    
    66   32  100 1    
    67   33  101 1    
    68   33  102 1    
    69   33  103 1    
    70   34   35 am   BACKBONE|DICT|INTERRES
    71   34  104 1    
    72   35   36 2    
    73   37   38 2    
    74   37   39 am   BACKBONE|DICT|INTERRES
    75   39   40 1    
    76   39  105 1    
    77   40   41 1    
    78   40   42 1    
    79   40  106 1    
    80   41  107 1    
    81   41  108 1    
    82   41  109 1    
    83   42   43 2    
    84   42   44 am   BACKBONE|DICT|INTERRES
    85   44   45 1    
    86   44  110 1    
    87   45   46 1    
    88   45   47 1    
    89   45  111 1    
    90   46  112 1    
    91   46  113 1    
    92   46  114 1    
    93   47   48 2    
    94   47   49 am   BACKBONE|DICT|INTERRES
    95   49   50 1    
    96   49  115 1    
    97   50   51 1    
    98   50   52 1    
    99   50  116 1    
   100   51  117 1    
   101   51  118 1    
   102   51  119 1    
   103   52   53 2    
   104   52   54 am   BACKBONE|DICT|INTERRES
   105   54   55 1    
   106   54  120 1    
   107   55   56 1    
   108   55   57 1    
   109   55  121 1    
   110   56  122 1    
   111   56  123 1    
   112   56  124 1    
   113   57   58 2    
   114   57   59 am   BACKBONE|DICT|INTERRES
   115   59   60 1    
   116   59  125 1    
   117   60   61 1    
   118   60   62 1    
   119   60  126 1    
   120   61  127 1    
   121   61  128 1    
   122   61  129 1    
   123   62   63 2    
   124   62   64 am   BACKBONE|DICT|INTERRES
   125   64   65 1    
   126   64  130 1    
   127   65   66 1    
   128   65   69 1    
   129   65  131 1    
   130   66   67 am   BACKBONE|DICT|INTERRES
   131   66   68 2    
   132   67  132 1    
   133   67  133 1    
   134   69   70 1    
   135   69  134 1    
   136   69  135 1    
   137   70   71 1    
   138   71  136 1    
   139   71  137 1    
@<TRIPOS>SUBSTRUCTURE
     1 UNK         1 GROUP             0       ****    0 ROOT    
