@<TRIPOS>MOLECULE
3R137
137   139    1
SMALL
USER_CHARGES


@<TRIPOS>ATOM
      1 CA         25.1473   -6.0802   -5.4732 C.3       0 UNK        -0.2020 
      2 C          25.2968   -5.5111   -4.0707 C.2       0 UNK         0.4855 
      3 O          24.3598   -4.9031   -3.5517 O.2       0 UNK        -0.5197 
      4 N          26.4700   -5.6944   -3.4509 N.am      1 UNK        -0.4892 
      5 CA         26.8140   -5.1303   -2.1421 C.3       1 UNK         0.0835 
      6 C6         28.1360   -5.7268   -1.6067 C.3       12 UNK        -0.0855 
      7 S7         28.4748   -5.2339    0.1188 S.3       12 UNK        -0.2931 
      8 C8         30.2677   -4.9169    0.0776 C.3       12 UNK         0.0378 
      9 C9         30.6647   -3.7829   -0.8618 C.ar      12 UNK        -0.0802 
     10 C10        31.4354   -4.0550   -1.9974 C.ar      12 UNK        -0.0944 
     11 C11        31.8873   -3.0175   -2.8180 C.ar      12 UNK        -0.0787 
     12 C12        31.5625   -1.6992   -2.4893 C.ar      12 UNK        -0.0862 
     13 C13        30.7560   -1.4108   -1.3847 C.ar      12 UNK        -0.0733 
     14 C14        30.3117   -2.4601   -0.5715 C.ar      12 UNK        -0.0832 
     15 C15        30.4071    0.0334   -1.0419 C.3       12 UNK         0.0240 
     16 S16        29.0486    0.6926   -2.0657 S.3       12 UNK        -0.2522 
     17 C17        29.9422    1.3918   -3.4957 C.3       12 UNK        -0.0967 
     18 CA         29.2060    1.3001   -4.8579 C.3       5 UNK         0.0660 
     19 N          28.5729    0.0046   -5.1203 N.am      5 UNK        -0.4015 
     20 C          28.4947   -0.5555   -6.3366 C.2       4 UNK         0.4946 
     21 O          29.0667   -0.1098   -7.3352 O.2       4 UNK        -0.5353 
     22 CA         27.6221   -1.8138   -6.4814 C.3       4 UNK         0.0277 
     23 CB         28.4448   -3.0914   -6.2592 C.3       4 UNK        -0.1981 
     24 N          26.4662   -1.8186   -5.5835 N.am      4 UNK        -0.4209 
     25 C          25.3834   -1.0440   -5.7501 C.2       3 UNK         0.4942 
     26 O          25.2772   -0.2124   -6.6487 O.2       3 UNK        -0.5208 
     27 CA         24.2306   -1.1938   -4.7418 C.3       3 UNK         0.0250 
     28 CB         23.1865   -2.1921   -5.2643 C.3       3 UNK        -0.1990 
     29 N          24.6795   -1.5906   -3.4068 N.am      3 UNK        -0.4232 
     30 C          25.4665   -0.8323   -2.6281 C.2       2 UNK         0.4993 
     31 O          25.8380    0.2982   -2.9420 O.2       2 UNK        -0.5286 
     32 CA         25.9711   -1.4533   -1.3123 C.3       2 UNK         0.0209 
     33 CB         25.0600   -1.0513   -0.1425 C.3       2 UNK        -0.1931 
     34 N          26.1041   -2.9140   -1.3499 N.am      2 UNK        -0.4546 
     35 C          26.8571   -3.5910   -2.2289 C.2       1 UNK         0.5154 
     36 O          27.5249   -3.0528   -3.1136 O.2       1 UNK        -0.5181 
     37 C          28.2284    2.4685   -5.0847 C.2       5 UNK         0.5014 
     38 O          28.6748    3.5120   -5.5618 O.2       5 UNK        -0.5248 
     39 N          26.9277    2.2931   -4.7952 N.am      6 UNK        -0.4434 
     40 CA         25.8948    3.3053   -5.0574 C.3       6 UNK         0.0363 
     41 CB         24.5671    2.9013   -4.4005 C.3       6 UNK        -0.1936 
     42 C          25.6900    3.5882   -6.5566 C.2       6 UNK         0.5081 
     43 O          25.5464    4.7509   -6.9351 O.2       6 UNK        -0.5248 
     44 N          25.7113    2.5347   -7.3872 N.am      7 UNK        -0.4718 
     45 CA         25.6750    2.6374   -8.8508 C.3       7 UNK         0.0273 
     46 CB         25.2948    1.2737   -9.4499 C.3       7 UNK        -0.1935 
     47 C          27.0036    3.1229   -9.4561 C.2       7 UNK         0.5018 
     48 O          27.0125    3.5499  -10.6108 O.2       7 UNK        -0.5186 
     49 N          28.0985    3.0165   -8.6885 N.am      8 UNK        -0.4240 
     50 CA         29.4840    3.4243   -8.9629 C.3       8 UNK         0.0235 
     51 CB         29.5795    4.9465   -9.1784 C.3       8 UNK        -0.2000 
     52 C          30.1938    2.6655  -10.0985 C.2       8 UNK         0.4941 
     53 O          31.4079    2.4878  -10.0212 O.2       8 UNK        -0.5273 
     54 N          29.4543    2.2185  -11.1198 N.am      9 UNK        -0.4262 
     55 CA         29.9627    1.5155  -12.3009 C.3       9 UNK         0.0264 
     56 CB         28.8087    1.3157  -13.2970 C.3       9 UNK        -0.1955 
     57 C          30.6528    0.1710  -12.0032 C.2       9 UNK         0.5031 
     58 O          31.5049   -0.2451  -12.7901 O.2       9 UNK        -0.5390 
     59 N          30.2723   -0.4846  -10.8982 N.am      10 UNK        -0.4204 
     60 CA         30.8453   -1.7524  -10.4540 C.3       10 UNK         0.0237 
     61 CB         29.7552   -2.6183   -9.8010 C.3       10 UNK        -0.1985 
     62 C          32.0552   -1.5245   -9.5343 C.2       10 UNK         0.4970 
     63 O          33.1804   -1.7973   -9.9548 O.2       10 UNK        -0.4914 
     64 N          31.8136   -1.0545   -8.3022 N.am      11 UNK        -0.4285 
     65 CA         32.8572   -0.8989   -7.2702 C.3       11 UNK         0.1007 
     66 C          33.6484    0.4397   -7.3239 C.2       11 UNK         0.5703 
     67 N          33.3103    1.4024   -8.1693 N.am      11 UNK        -0.7361 
     68 O          34.6168    0.6044   -6.5855 O.2       11 UNK        -0.4986 
     69 C69        32.3037   -1.1776   -5.8483 C.3       12 UNK        -0.0947 
     70 S70        31.9066   -2.9423   -5.6033 S.3       12 UNK        -0.2240 
     71 C71        32.7558   -3.3204   -4.0343 C.3       12 UNK         0.0194 
     72 H72        24.2857   -6.7455   -5.5182 H         1 UNK         0.0906 
     73 H73        24.9939   -5.2741   -6.1900 H         1 UNK         0.0906 
     74 H74        26.0275   -6.6444   -5.7806 H         1 UNK         0.0906 
     75 H75        27.2162   -6.1762   -3.9318 H         1 UNK         0.3140 
     76 H76        26.0155   -5.4163   -1.4533 H         1 UNK         0.1085 
     77 H77        28.9667   -5.4479   -2.2566 H         1 UNK         0.0836 
     78 H78        28.0890   -6.8167   -1.6317 H         1 UNK         0.0836 
     79 H79        30.7811   -5.8414   -0.1917 H         1 UNK         0.0731 
     80 H80        30.6012   -4.6710    1.0868 H         1 UNK         0.0731 
     81 H81        31.7051   -5.0762   -2.2298 H         1 UNK         0.1312 
     82 H82        31.9454   -0.8976   -3.0976 H         1 UNK         0.1406 
     83 H83        29.7080   -2.2494    0.3009 H         1 UNK         0.1631 
     84 H84        31.2897    0.6670   -1.1413 H         1 UNK         0.0717 
     85 H85        30.1080    0.1032    0.0050 H         1 UNK         0.0717 
     86 H86        30.2023    2.4267   -3.2633 H         1 UNK         0.0934 
     87 H87        30.9004    0.8888   -3.5939 H         1 UNK         0.0934 
     88 H88        29.9843    1.4444   -5.6113 H         1 UNK         0.0739 
     89 H89        28.1059   -0.4357   -4.3387 H         1 UNK         0.3093 
     90 H90        27.2458   -1.8316   -7.5065 H         1 UNK         0.0818 
     91 H91        28.8972   -3.1146   -5.2678 H         1 UNK         0.0819 
     92 H92        27.8323   -3.9861   -6.3697 H         1 UNK         0.0819 
     93 H93        29.2582   -3.1664   -6.9791 H         1 UNK         0.0819 
     94 H94        26.5351   -2.4130   -4.7634 H         1 UNK         0.3041 
     95 H95        23.7411   -0.2241   -4.6473 H         1 UNK         0.0784 
     96 H96        22.7698   -1.8536   -6.2140 H         1 UNK         0.0793 
     97 H97        23.6175   -3.1782   -5.4352 H         1 UNK         0.0793 
     98 H98        22.3556   -2.3034   -4.5675 H         1 UNK         0.0793 
     99 H99        24.4414   -2.5255   -3.1003 H         1 UNK         0.3024 
    100 H100       26.9661   -1.0468   -1.1258 H         1 UNK         0.1171 
    101 H101       25.4610   -1.3966    0.8106 H         1 UNK         0.0786 
    102 H102       24.9667    0.0339   -0.0778 H         1 UNK         0.0786 
    103 H103       24.0546   -1.4593   -0.2541 H         1 UNK         0.0786 
    104 H104       25.5790   -3.4317   -0.6597 H         1 UNK         0.2977 
    105 H105       26.6262    1.4478   -4.3168 H         1 UNK         0.3127 
    106 H106       26.2254    4.2360   -4.5912 H         1 UNK         0.0770 
    107 H107       24.1662    1.9886   -4.8380 H         1 UNK         0.0814 
    108 H108       23.8156    3.6808   -4.5321 H         1 UNK         0.0814 
    109 H109       24.6836    2.7420   -3.3285 H         1 UNK         0.0814 
    110 H110       25.7459    1.5935   -7.0004 H         1 UNK         0.2983 
    111 H111       24.9056    3.3612   -9.1287 H         1 UNK         0.0947 
    112 H112       25.2180    1.3296  -10.5367 H         1 UNK         0.0806 
    113 H113       24.3301    0.9313   -9.0750 H         1 UNK         0.0806 
    114 H114       26.0360    0.5089   -9.2133 H         1 UNK         0.0806 
    115 H115       27.9551    2.6285   -7.7664 H         1 UNK         0.3000 
    116 H116       30.0375    3.1884   -8.0523 H         1 UNK         0.0850 
    117 H117       30.6190    5.2604   -9.2825 H         1 UNK         0.0810 
    118 H118       29.1599    5.4908   -8.3321 H         1 UNK         0.0810 
    119 H119       29.0528    5.2655  -10.0783 H         1 UNK         0.0810 
    120 H120       28.4731    2.4851  -11.1232 H         1 UNK         0.3040 
    121 H121       30.7086    2.1627  -12.7671 H         1 UNK         0.0766 
    122 H122       28.3727    2.2691  -13.5963 H         1 UNK         0.0812 
    123 H123       28.0132    0.7009  -12.8739 H         1 UNK         0.0812 
    124 H124       29.1564    0.8209  -14.2050 H         1 UNK         0.0812 
    125 H125       29.5885   -0.0502  -10.2949 H         1 UNK         0.3205 
    126 H126       31.2078   -2.3094  -11.3211 H         1 UNK         0.0754 
    127 H127       30.1825   -3.5053   -9.3310 H         1 UNK         0.0769 
    128 H128       29.0351   -2.9620  -10.5437 H         1 UNK         0.0769 
    129 H129       29.2015   -2.0711   -9.0419 H         1 UNK         0.0769 
    130 H130       30.8684   -0.8085   -8.0281 H         1 UNK         0.2981 
    131 H131       33.6201   -1.6584   -7.4532 H         1 UNK         0.0541 
    132 H132       32.5237    1.3253   -8.8020 H         1 UNK         0.3459 
    133 H133       33.8570    2.2479   -8.1777 H         1 UNK         0.3459 
    134 H134       33.0327   -0.8824   -5.0929 H         1 UNK         0.0612 
    135 H135       31.4121   -0.5825   -5.6560 H         1 UNK         0.0612 
    136 H136       33.6965   -2.7725   -3.9674 H         1 UNK         0.0624 
    137 H137       33.0268   -4.3770   -4.0478 H         1 UNK         0.0624 
@<TRIPOS>BOND
     1    1    2 1    
     2    1   72 1    
     3    1   73 1    
     4    1   74 1    
     5    2    3 2    
     6    2    4 am   BACKBONE|DICT|INTERRES
     7    4    5 1    
     8    4   75 1    
     9    5    6 1    
    10    5   35 1    
    11    5   76 1    
    12    6    7 1    
    13    6   77 1    
    14    6   78 1    
    15    7    8 1    
    16    8    9 1    
    17    8   79 1    
    18    8   80 1    
    19    9   10 ar   
    20    9   14 ar   
    21   10   11 ar   
    22   10   81 1    
    23   11   12 ar   
    24   11   71 1    
    25   12   13 ar   
    26   12   82 1    
    27   13   14 ar   
    28   13   15 1    
    29   14   83 1    
    30   15   16 1    
    31   15   84 1    
    32   15   85 1    
    33   16   17 1    
    34   17   18 1    
    35   17   86 1    
    36   17   87 1    
    37   18   19 1    
    38   18   37 1    
    39   18   88 1    
    40   19   20 am   BACKBONE|DICT|INTERRES
    41   19   89 1    
    42   20   21 2    
    43   20   22 1    
    44   22   23 1    
    45   22   24 1    
    46   22   90 1    
    47   23   91 1    
    48   23   92 1    
    49   23   93 1    
    50   24   25 am   BACKBONE|DICT|INTERRES
    51   24   94 1    
    52   25   26 2    
    53   25   27 1    
    54   27   28 1    
    55   27   29 1    
    56   27   95 1    
    57   28   96 1    
    58   28   97 1    
    59   28   98 1    
    60   29   30 am   BACKBONE|DICT|INTERRES
    61   29   99 1    
    62   30   31 2    
    63   30   32 1    
    64   32   33 1    
    65   32   34 1    
    66   32  100 1    
    67   33  101 1    
    68   33  102 1    
    69   33  103 1    
    70   34   35 am   BACKBONE|DICT|INTERRES
    71   34  104 1    
    72   35   36 2    
    73   37   38 2    
    74   37   39 am   BACKBONE|DICT|INTERRES
    75   39   40 1    
    76   39  105 1    
    77   40   41 1    
    78   40   42 1    
    79   40  106 1    
    80   41  107 1    
    81   41  108 1    
    82   41  109 1    
    83   42   43 2    
    84   42   44 am   BACKBONE|DICT|INTERRES
    85   44   45 1    
    86   44  110 1    
    87   45   46 1    
    88   45   47 1    
    89   45  111 1    
    90   46  112 1    
    91   46  113 1    
    92   46  114 1    
    93   47   48 2    
    94   47   49 am   BACKBONE|DICT|INTERRES
    95   49   50 1    
    96   49  115 1    
    97   50   51 1    
    98   50   52 1    
    99   50  116 1    
   100   51  117 1    
   101   51  118 1    
   102   51  119 1    
   103   52   53 2    
   104   52   54 am   BACKBONE|DICT|INTERRES
   105   54   55 1    
   106   54  120 1    
   107   55   56 1    
   108   55   57 1    
   109   55  121 1    
   110   56  122 1    
   111   56  123 1    
   112   56  124 1    
   113   57   58 2    
   114   57   59 am   BACKBONE|DICT|INTERRES
   115   59   60 1    
   116   59  125 1    
   117   60   61 1    
   118   60   62 1    
   119   60  126 1    
   120   61  127 1    
   121   61  128 1    
   122   61  129 1    
   123   62   63 2    
   124   62   64 am   BACKBONE|DICT|INTERRES
   125   64   65 1    
   126   64  130 1    
   127   65   66 1    
   128   65   69 1    
   129   65  131 1    
   130   66   67 am   BACKBONE|DICT|INTERRES
   131   66   68 2    
   132   67  132 1    
   133   67  133 1    
   134   69   70 1    
   135   69  134 1    
   136   69  135 1    
   137   70   71 1    
   138   71  136 1    
   139   71  137 1    
@<TRIPOS>SUBSTRUCTURE
     1 UNK         1 GROUP             0       ****    0 ROOT    
