@<TRIPOS>MOLECULE
3R137
137   139    1
SMALL
USER_CHARGES


@<TRIPOS>ATOM
      1 CA         30.5805    1.0037   -2.0402 C.3       0 UNK        -0.2020 
      2 C          29.7524   -0.0925   -1.3931 C.2       0 UNK         0.4855 
      3 O          29.4671   -0.0164   -0.1987 O.2       0 UNK        -0.5197 
      4 N          29.3402   -1.0981   -2.1775 N.am      1 UNK        -0.4892 
      5 CA         28.5804   -2.2967   -1.7833 C.3       1 UNK         0.0835 
      6 C6         29.3148   -3.1322   -0.6983 C.3       12 UNK        -0.0855 
      7 S7         28.9462   -4.9151   -0.8101 S.3       12 UNK        -0.2931 
      8 C8         30.3852   -5.5265   -1.7430 C.3       12 UNK         0.0378 
      9 C9         30.4096   -4.9977   -3.1709 C.ar      12 UNK        -0.0802 
     10 C10        31.3324   -4.0175   -3.5472 C.ar      12 UNK        -0.0944 
     11 C11        31.3866   -3.5639   -4.8682 C.ar      12 UNK        -0.0787 
     12 C12        30.4989   -4.0881   -5.8132 C.ar      12 UNK        -0.0862 
     13 C13        29.5631   -5.0649   -5.4490 C.ar      12 UNK        -0.0733 
     14 C14        29.5275   -5.5135   -4.1247 C.ar      12 UNK        -0.0832 
     15 C15        28.6341   -5.7073   -6.4779 C.3       12 UNK         0.0240 
     16 S16        27.9614   -4.5550   -7.7196 S.3       12 UNK        -0.2522 
     17 C17        26.7841   -3.5800   -6.7257 C.3       12 UNK        -0.0967 
     18 CA         26.5311   -2.1898   -7.3605 C.3       5 UNK         0.0660 
     19 N          25.1887   -1.6813   -7.0647 N.am      5 UNK        -0.4015 
     20 C          24.6734   -0.5373   -7.5404 C.2       4 UNK         0.4946 
     21 O          25.2300    0.1522   -8.3965 O.2       4 UNK        -0.5353 
     22 CA         23.3569   -0.0313   -6.9170 C.3       4 UNK         0.0277 
     23 CB         22.1878   -0.2680   -7.8862 C.3       4 UNK        -0.1981 
     24 N          23.0145   -0.5895   -5.5985 N.am      4 UNK        -0.4209 
     25 C          23.7956   -0.5967   -4.5070 C.2       3 UNK         0.4942 
     26 O          24.9517   -0.1664   -4.4959 O.2       3 UNK        -0.5208 
     27 CA         23.1982   -1.2530   -3.2493 C.3       3 UNK         0.0250 
     28 CB         22.8183   -2.7223   -3.5133 C.3       3 UNK        -0.1990 
     29 N          24.1436   -1.2258   -2.1356 N.am      3 UNK        -0.4232 
     30 C          24.4007   -0.1865   -1.3373 C.2       2 UNK         0.4993 
     31 O          23.7898    0.8823   -1.3852 O.2       2 UNK        -0.5286 
     32 CA         25.5181   -0.3729   -0.2924 C.3       2 UNK         0.0209 
     33 CB         25.0285   -1.2370    0.8863 C.3       2 UNK        -0.1931 
     34 N          26.8025   -0.8740   -0.8117 N.am      2 UNK        -0.4546 
     35 C          27.1010   -2.0392   -1.4062 C.2       1 UNK         0.5154 
     36 O          26.2615   -2.9008   -1.6730 O.2       1 UNK        -0.5181 
     37 C          27.6487   -1.1829   -7.0023 C.2       5 UNK         0.5014 
     38 O          28.6504   -1.1285   -7.7147 O.2       5 UNK        -0.5248 
     39 N          27.4318   -0.3548   -5.9655 N.am      6 UNK        -0.4434 
     40 CA         28.3117    0.7526   -5.5826 C.3       6 UNK         0.0363 
     41 CB         27.7624    1.4305   -4.3174 C.3       6 UNK        -0.1936 
     42 C          28.5004    1.7958   -6.6968 C.2       6 UNK         0.5081 
     43 O          29.5995    2.3314   -6.8400 O.2       6 UNK        -0.5248 
     44 N          27.4363    2.0507   -7.4695 N.am      7 UNK        -0.4718 
     45 CA         27.4566    2.9386   -8.6287 C.3       7 UNK         0.0273 
     46 CB         26.0590    3.5425   -8.8433 C.3       7 UNK        -0.1935 
     47 C          27.9334    2.2014   -9.8872 C.2       7 UNK         0.5018 
     48 O          28.7396    2.7569  -10.6323 O.2       7 UNK        -0.5186 
     49 N          27.4456    0.9686  -10.0984 N.am      8 UNK        -0.4240 
     50 CA         27.7486    0.1474  -11.2763 C.3       8 UNK         0.0235 
     51 CB         26.8363   -1.0885  -11.3087 C.3       8 UNK        -0.2000 
     52 C          29.2270   -0.2649  -11.3757 C.2       8 UNK         0.4941 
     53 O          29.8048   -0.1661  -12.4589 O.2       8 UNK        -0.5273 
     54 N          29.8205   -0.6921  -10.2518 N.am      9 UNK        -0.4262 
     55 CA         31.2497   -1.0059  -10.1464 C.3       9 UNK         0.0264 
     56 CB         31.4560   -2.0543   -9.0412 C.3       9 UNK        -0.1955 
     57 C          32.1085    0.2410   -9.8669 C.2       9 UNK         0.5031 
     58 O          33.3343    0.1493   -9.9429 O.2       9 UNK        -0.5390 
     59 N          31.4588    1.3658   -9.5290 N.am      10 UNK        -0.4204 
     60 CA         32.0288    2.6695   -9.1691 C.3       10 UNK         0.0237 
     61 CB         32.7679    3.2976  -10.3699 C.3       10 UNK        -0.1985 
     62 C          32.8834    2.6488   -7.8848 C.2       10 UNK         0.4970 
     63 O          33.7193    3.5360   -7.7014 O.2       10 UNK        -0.4914 
     64 N          32.6571    1.6566   -7.0136 N.am      11 UNK        -0.4285 
     65 CA         33.3056    1.5361   -5.7018 C.3       11 UNK         0.1007 
     66 C          32.7046    2.4580   -4.6023 C.2       11 UNK         0.5703 
     67 N          31.5334    3.0544   -4.7971 N.am      11 UNK        -0.7361 
     68 O          33.3257    2.6513   -3.5601 O.2       11 UNK        -0.4986 
     69 C69        33.4328    0.0575   -5.2487 C.3       12 UNK        -0.0947 
     70 S70        31.8521   -0.8414   -5.0854 S.3       12 UNK        -0.2240 
     71 C71        32.4420   -2.5484   -5.2786 C.3       12 UNK         0.0194 
     72 H72        30.5259    0.9586   -3.1260 H         1 UNK         0.0906 
     73 H73        30.2234    1.9846   -1.7280 H         1 UNK         0.0906 
     74 H74        31.6257    0.9110   -1.7467 H         1 UNK         0.0906 
     75 H75        29.6102   -1.0844   -3.1519 H         1 UNK         0.3140 
     76 H76        28.5437   -2.8926   -2.6970 H         1 UNK         0.1085 
     77 H77        30.3945   -3.0041   -0.7884 H         1 UNK         0.0836 
     78 H78        29.0678   -2.7795    0.3051 H         1 UNK         0.0836 
     79 H79        30.3525   -6.6168   -1.7645 H         1 UNK         0.0731 
     80 H80        31.3019   -5.2627   -1.2129 H         1 UNK         0.0731 
     81 H81        32.0232   -3.6190   -2.8166 H         1 UNK         0.1312 
     82 H82        30.5501   -3.7479   -6.8377 H         1 UNK         0.1406 
     83 H83        28.8220   -6.2801   -3.8328 H         1 UNK         0.1631 
     84 H84        27.7990   -6.2075   -5.9848 H         1 UNK         0.0717 
     85 H85        29.1925   -6.4852   -6.9999 H         1 UNK         0.0717 
     86 H86        25.8584   -4.1563   -6.6839 H         1 UNK         0.0934 
     87 H87        27.1321   -3.4940   -5.6938 H         1 UNK         0.0934 
     88 H88        26.5498   -2.3074   -8.4435 H         1 UNK         0.0739 
     89 H89        24.6632   -2.1756   -6.3601 H         1 UNK         0.3093 
     90 H90        23.4739    1.0460   -6.7828 H         1 UNK         0.0818 
     91 H91        21.2706    0.1982   -7.5259 H         1 UNK         0.0819 
     92 H92        22.3999    0.1602   -8.8673 H         1 UNK         0.0819 
     93 H93        21.9920   -1.3312   -8.0308 H         1 UNK         0.0819 
     94 H94        22.0843   -0.9745   -5.5151 H         1 UNK         0.3041 
     95 H95        22.3019   -0.6965   -2.9677 H         1 UNK         0.0784 
     96 H96        22.0469   -2.8109   -4.2788 H         1 UNK         0.0793 
     97 H97        23.6781   -3.3081   -3.8421 H         1 UNK         0.0793 
     98 H98        22.4234   -3.1935   -2.6127 H         1 UNK         0.0793 
     99 H99        24.7658   -2.0273   -2.0422 H         1 UNK         0.3024 
    100 H100       25.7327    0.6218    0.1027 H         1 UNK         0.1171 
    101 H101       25.7723   -1.2776    1.6821 H         1 UNK         0.0786 
    102 H102       24.1149   -0.8260    1.3181 H         1 UNK         0.0786 
    103 H103       24.8104   -2.2607    0.5803 H         1 UNK         0.0786 
    104 H104       27.6031   -0.2770   -0.6225 H         1 UNK         0.2977 
    105 H105       26.5554   -0.4239   -5.4508 H         1 UNK         0.3127 
    106 H106       29.2895    0.3314   -5.3546 H         1 UNK         0.0770 
    107 H107       26.8011    1.9109   -4.5047 H         1 UNK         0.0814 
    108 H108       28.4453    2.2016   -3.9588 H         1 UNK         0.0814 
    109 H109       27.6165    0.7160   -3.5083 H         1 UNK         0.0814 
    110 H110       26.5892    1.5169   -7.3225 H         1 UNK         0.2983 
    111 H111       28.1515    3.7603   -8.4387 H         1 UNK         0.0947 
    112 H112       26.0583    4.2279   -9.6919 H         1 UNK         0.0806 
    113 H113       25.7350    4.1087   -7.9700 H         1 UNK         0.0806 
    114 H114       25.3083    2.7771   -9.0430 H         1 UNK         0.0806 
    115 H115       26.7524    0.6058   -9.4479 H         1 UNK         0.3000 
    116 H116       27.5174    0.7543  -12.1545 H         1 UNK         0.0850 
    117 H117       26.9270   -1.6086  -12.2631 H         1 UNK         0.0810 
    118 H118       25.7873   -0.8186  -11.1835 H         1 UNK         0.0810 
    119 H119       27.0984   -1.8032  -10.5305 H         1 UNK         0.0810 
    120 H120       29.2772   -0.7801   -9.3924 H         1 UNK         0.3040 
    121 H121       31.5930   -1.4380  -11.0888 H         1 UNK         0.0766 
    122 H122       31.2014   -1.6562   -8.0588 H         1 UNK         0.0812 
    123 H123       32.4962   -2.3795   -8.9996 H         1 UNK         0.0812 
    124 H124       30.8439   -2.9398   -9.2137 H         1 UNK         0.0812 
    125 H125       30.4491    1.3246   -9.5141 H         1 UNK         0.3205 
    126 H126       31.1753    3.3103   -8.9425 H         1 UNK         0.0754 
    127 H127       33.0560    4.3282  -10.1588 H         1 UNK         0.0769 
    128 H128       32.1344    3.3164  -11.2569 H         1 UNK         0.0769 
    129 H129       33.6777    2.7501  -10.6175 H         1 UNK         0.0769 
    130 H130       31.9174    0.9979   -7.2058 H         1 UNK         0.2981 
    131 H131       34.3308    1.8909   -5.8241 H         1 UNK         0.0541 
    132 H132       30.9888    2.8709   -5.6347 H         1 UNK         0.3459 
    133 H133       31.1721    3.6694   -4.0872 H         1 UNK         0.3459 
    134 H134       33.9637   -0.0069   -4.2972 H         1 UNK         0.0612 
    135 H135       34.0556   -0.4757   -5.9688 H         1 UNK         0.0612 
    136 H136       33.3394   -2.6886   -4.6737 H         1 UNK         0.0624 
    137 H137       32.7428   -2.7114   -6.3143 H         1 UNK         0.0624 
@<TRIPOS>BOND
     1    1    2 1    
     2    1   72 1    
     3    1   73 1    
     4    1   74 1    
     5    2    3 2    
     6    2    4 am   BACKBONE|DICT|INTERRES
     7    4    5 1    
     8    4   75 1    
     9    5    6 1    
    10    5   35 1    
    11    5   76 1    
    12    6    7 1    
    13    6   77 1    
    14    6   78 1    
    15    7    8 1    
    16    8    9 1    
    17    8   79 1    
    18    8   80 1    
    19    9   10 ar   
    20    9   14 ar   
    21   10   11 ar   
    22   10   81 1    
    23   11   12 ar   
    24   11   71 1    
    25   12   13 ar   
    26   12   82 1    
    27   13   14 ar   
    28   13   15 1    
    29   14   83 1    
    30   15   16 1    
    31   15   84 1    
    32   15   85 1    
    33   16   17 1    
    34   17   18 1    
    35   17   86 1    
    36   17   87 1    
    37   18   19 1    
    38   18   37 1    
    39   18   88 1    
    40   19   20 am   BACKBONE|DICT|INTERRES
    41   19   89 1    
    42   20   21 2    
    43   20   22 1    
    44   22   23 1    
    45   22   24 1    
    46   22   90 1    
    47   23   91 1    
    48   23   92 1    
    49   23   93 1    
    50   24   25 am   BACKBONE|DICT|INTERRES
    51   24   94 1    
    52   25   26 2    
    53   25   27 1    
    54   27   28 1    
    55   27   29 1    
    56   27   95 1    
    57   28   96 1    
    58   28   97 1    
    59   28   98 1    
    60   29   30 am   BACKBONE|DICT|INTERRES
    61   29   99 1    
    62   30   31 2    
    63   30   32 1    
    64   32   33 1    
    65   32   34 1    
    66   32  100 1    
    67   33  101 1    
    68   33  102 1    
    69   33  103 1    
    70   34   35 am   BACKBONE|DICT|INTERRES
    71   34  104 1    
    72   35   36 2    
    73   37   38 2    
    74   37   39 am   BACKBONE|DICT|INTERRES
    75   39   40 1    
    76   39  105 1    
    77   40   41 1    
    78   40   42 1    
    79   40  106 1    
    80   41  107 1    
    81   41  108 1    
    82   41  109 1    
    83   42   43 2    
    84   42   44 am   BACKBONE|DICT|INTERRES
    85   44   45 1    
    86   44  110 1    
    87   45   46 1    
    88   45   47 1    
    89   45  111 1    
    90   46  112 1    
    91   46  113 1    
    92   46  114 1    
    93   47   48 2    
    94   47   49 am   BACKBONE|DICT|INTERRES
    95   49   50 1    
    96   49  115 1    
    97   50   51 1    
    98   50   52 1    
    99   50  116 1    
   100   51  117 1    
   101   51  118 1    
   102   51  119 1    
   103   52   53 2    
   104   52   54 am   BACKBONE|DICT|INTERRES
   105   54   55 1    
   106   54  120 1    
   107   55   56 1    
   108   55   57 1    
   109   55  121 1    
   110   56  122 1    
   111   56  123 1    
   112   56  124 1    
   113   57   58 2    
   114   57   59 am   BACKBONE|DICT|INTERRES
   115   59   60 1    
   116   59  125 1    
   117   60   61 1    
   118   60   62 1    
   119   60  126 1    
   120   61  127 1    
   121   61  128 1    
   122   61  129 1    
   123   62   63 2    
   124   62   64 am   BACKBONE|DICT|INTERRES
   125   64   65 1    
   126   64  130 1    
   127   65   66 1    
   128   65   69 1    
   129   65  131 1    
   130   66   67 am   BACKBONE|DICT|INTERRES
   131   66   68 2    
   132   67  132 1    
   133   67  133 1    
   134   69   70 1    
   135   69  134 1    
   136   69  135 1    
   137   70   71 1    
   138   71  136 1    
   139   71  137 1    
@<TRIPOS>SUBSTRUCTURE
     1 UNK         1 GROUP             0       ****    0 ROOT    
