@<TRIPOS>MOLECULE
3R137
137   139    1
SMALL
USER_CHARGES


@<TRIPOS>ATOM
      1 CA         23.9537   -5.7471   -1.9538 C.3       0 UNK        -0.2020 
      2 C          24.9129   -4.5750   -2.0901 C.2       0 UNK         0.4855 
      3 O          24.8581   -3.8586   -3.0898 O.2       0 UNK        -0.5197 
      4 N          25.7744   -4.3616   -1.0843 N.am      1 UNK        -0.4892 
      5 CA         26.8227   -3.3270   -1.0284 C.3       1 UNK         0.0835 
      6 C6         27.9819   -3.5700   -2.0269 C.3       12 UNK        -0.0855 
      7 S7         28.7399   -5.2325   -1.9523 S.3       12 UNK        -0.2931 
      8 C8         30.5327   -4.8753   -2.0065 C.3       12 UNK         0.0378 
      9 C9         30.8882   -3.7748   -3.0004 C.ar      12 UNK        -0.0802 
     10 C10        30.7311   -3.9737   -4.3742 C.ar      12 UNK        -0.0944 
     11 C11        30.9889   -2.9410   -5.2822 C.ar      12 UNK        -0.0787 
     12 C12        31.4146   -1.6954   -4.7950 C.ar      12 UNK        -0.0862 
     13 C13        31.5798   -1.4862   -3.4216 C.ar      12 UNK        -0.0733 
     14 C14        31.3285   -2.5343   -2.5337 C.ar      12 UNK        -0.0832 
     15 C15        32.0219   -0.1339   -2.8721 C.3       12 UNK         0.0240 
     16 S16        30.9594    1.2707   -3.3576 S.3       12 UNK        -0.2522 
     17 C17        29.2428    0.6409   -3.2380 C.3       12 UNK        -0.0967 
     18 CA         28.5731    0.6173   -4.6387 C.3       5 UNK         0.0660 
     19 N          27.6451   -0.5057   -4.8156 N.am      5 UNK        -0.4015 
     20 C          27.3344   -1.0045   -6.0230 C.2       4 UNK         0.4946 
     21 O          27.8151   -0.5781   -7.0753 O.2       4 UNK        -0.5353 
     22 CA         26.2613   -2.1023   -6.0957 C.3       4 UNK         0.0277 
     23 CB         26.8833   -3.5044   -5.9993 C.3       4 UNK        -0.1981 
     24 N          25.1839   -1.9425   -5.1123 N.am      4 UNK        -0.4209 
     25 C          24.3053   -0.9291   -5.1392 C.2       3 UNK         0.4942 
     26 O          24.4165    0.0389   -5.8895 O.2       3 UNK        -0.5208 
     27 CA         23.1141   -0.9929   -4.1769 C.3       3 UNK         0.0250 
     28 CB         22.1776   -2.1642   -4.5203 C.3       3 UNK        -0.1990 
     29 N          23.5742   -1.1063   -2.7970 N.am      3 UNK        -0.4232 
     30 C          23.8099   -0.0615   -1.9907 C.2       2 UNK         0.4993 
     31 O          23.5911    1.1094   -2.3034 O.2       2 UNK        -0.5286 
     32 CA         24.3901   -0.3618   -0.5949 C.3       2 UNK         0.0209 
     33 CB         23.2744   -0.3559    0.4630 C.3       2 UNK        -0.1931 
     34 N          25.1248   -1.6288   -0.5114 N.am      2 UNK        -0.4546 
     35 C          26.2489   -1.8991   -1.1894 C.2       1 UNK         0.5154 
     36 O          26.7840   -1.0940   -1.9573 O.2       1 UNK        -0.5181 
     37 C          27.9552    1.9837   -5.0318 C.2       5 UNK         0.5014 
     38 O          28.6908    2.9673   -5.1164 O.2       5 UNK        -0.5248 
     39 N          26.6395    2.0396   -5.2883 N.am      6 UNK        -0.4434 
     40 CA         25.9704    3.2026   -5.8718 C.3       6 UNK         0.0363 
     41 CB         24.6059    3.4140   -5.1926 C.3       6 UNK        -0.1936 
     42 C          25.8110    3.0243   -7.3902 C.2       6 UNK         0.5081 
     43 O          26.0987    3.9564   -8.1408 O.2       6 UNK        -0.5248 
     44 N          25.3434    1.8409   -7.8133 N.am      7 UNK        -0.4718 
     45 CA         25.0294    1.5098   -9.2036 C.3       7 UNK         0.0273 
     46 CB         24.1653    0.2378   -9.2431 C.3       7 UNK        -0.1935 
     47 C          26.2690    1.3530  -10.0981 C.2       7 UNK         0.5018 
     48 O          26.3030    1.9433  -11.1793 O.2       7 UNK        -0.5186 
     49 N          27.2463    0.5531   -9.6509 N.am      8 UNK        -0.4240 
     50 CA         28.4888    0.2916  -10.3803 C.3       8 UNK         0.0235 
     51 CB         28.8637   -1.1955  -10.2655 C.3       8 UNK        -0.2000 
     52 C          29.6143    1.1958   -9.8663 C.2       8 UNK         0.4941 
     53 O          30.2828    1.8403  -10.6766 O.2       8 UNK        -0.5273 
     54 N          29.7787    1.2507   -8.5356 N.am      9 UNK        -0.4262 
     55 CA         30.7070    2.0950   -7.7672 C.3       9 UNK         0.0264 
     56 CB         30.3822    3.5913   -7.9514 C.3       9 UNK        -0.1955 
     57 C          32.2009    1.8140   -8.0091 C.2       9 UNK         0.5031 
     58 O          32.9117    1.4679   -7.0635 O.2       9 UNK        -0.5390 
     59 N          32.6600    1.9528   -9.2587 N.am      10 UNK        -0.4204 
     60 CA         34.0440    1.7533   -9.7041 C.3       10 UNK         0.0237 
     61 CB         34.2739    2.5712  -10.9893 C.3       10 UNK        -0.1985 
     62 C          34.3810    0.2586   -9.8794 C.2       10 UNK         0.4970 
     63 O          34.8351   -0.1591  -10.9468 O.2       10 UNK        -0.4914 
     64 N          34.1092   -0.5224   -8.8324 N.am      11 UNK        -0.4285 
     65 CA         34.2459   -1.9812   -8.7852 C.3       11 UNK         0.1007 
     66 C          35.7190   -2.4382   -8.6146 C.2       11 UNK         0.5703 
     67 N          36.0406   -3.6546   -9.0454 N.am      11 UNK        -0.7361 
     68 O          36.5636   -1.7216   -8.0709 O.2       11 UNK        -0.4986 
     69 C69        33.3332   -2.5790   -7.6841 C.3       12 UNK        -0.0947 
     70 S70        31.5906   -2.0964   -7.9272 S.3       12 UNK        -0.2240 
     71 C71        30.7367   -3.2083   -6.7665 C.3       12 UNK         0.0194 
     72 H72        24.0992   -6.2886   -1.0189 H         1 UNK         0.0906 
     73 H73        22.9230   -5.3939   -1.9863 H         1 UNK         0.0906 
     74 H74        24.1004   -6.4452   -2.7778 H         1 UNK         0.0906 
     75 H75        25.7584   -4.9902   -0.2923 H         1 UNK         0.3140 
     76 H76        27.2438   -3.3675   -0.0218 H         1 UNK         0.1085 
     77 H77        27.6367   -3.4112   -3.0476 H         1 UNK         0.0836 
     78 H78        28.7488   -2.8161   -1.8473 H         1 UNK         0.0836 
     79 H79        31.0690   -5.7882   -2.2703 H         1 UNK         0.0731 
     80 H80        30.8638   -4.6080   -1.0015 H         1 UNK         0.0731 
     81 H81        30.3757   -4.9304   -4.7328 H         1 UNK         0.1312 
     82 H82        31.6009   -0.8740   -5.4730 H         1 UNK         0.1406 
     83 H83        31.4453   -2.3752   -1.4700 H         1 UNK         0.1631 
     84 H84        33.0391    0.0672   -3.2121 H         1 UNK         0.0717 
     85 H85        32.0668   -0.1578   -1.7817 H         1 UNK         0.0717 
     86 H86        29.2591   -0.3576   -2.8012 H         1 UNK         0.0934 
     87 H87        28.6770    1.2529   -2.5328 H         1 UNK         0.0934 
     88 H88        29.3707    0.4401   -5.3619 H         1 UNK         0.0739 
     89 H89        27.2018   -0.8687   -3.9773 H         1 UNK         0.3093 
     90 H90        25.7926   -2.0278   -7.0792 H         1 UNK         0.0818 
     91 H91        27.6332   -3.5732   -5.2109 H         1 UNK         0.0819 
     92 H92        26.1287   -4.2732   -5.8187 H         1 UNK         0.0819 
     93 H93        27.3836   -3.7597   -6.9354 H         1 UNK         0.0819 
     94 H94        25.0562   -2.6917   -4.4313 H         1 UNK         0.3041 
     95 H95        22.5409   -0.0707   -4.2982 H         1 UNK         0.0784 
     96 H96        21.8251   -2.0899   -5.5500 H         1 UNK         0.0793 
     97 H97        22.6671   -3.1324   -4.4137 H         1 UNK         0.0793 
     98 H98        21.2974   -2.1649   -3.8772 H         1 UNK         0.0793 
     99 H99        23.8459   -2.0312   -2.4875 H         1 UNK         0.3024 
    100 H100       25.0904    0.4441   -0.3627 H         1 UNK         0.1171 
    101 H101       23.6791   -0.4738    1.4685 H         1 UNK         0.0786 
    102 H102       22.7255    0.5870    0.4460 H         1 UNK         0.0786 
    103 H103       22.5526   -1.1561    0.2936 H         1 UNK         0.0786 
    104 H104       24.7318   -2.3509    0.0757 H         1 UNK         0.2977 
    105 H105       26.0871    1.1931   -5.2257 H         1 UNK         0.3127 
    106 H106       26.5615    4.1058   -5.7034 H         1 UNK         0.0770 
    107 H107       23.9369    2.5647   -5.3344 H         1 UNK         0.0814 
    108 H108       24.1038    4.2939   -5.5969 H         1 UNK         0.0814 
    109 H109       24.7189    3.5694   -4.1193 H         1 UNK         0.0814 
    110 H110       25.0792    1.1456   -7.1166 H         1 UNK         0.2983 
    111 H111       24.4344    2.3299   -9.6122 H         1 UNK         0.0947 
    112 H112       23.8950   -0.0203  -10.2681 H         1 UNK         0.0806 
    113 H113       23.2369    0.3730   -8.6872 H         1 UNK         0.0806 
    114 H114       24.6861   -0.6197   -8.8161 H         1 UNK         0.0806 
    115 H115       27.1721    0.1429   -8.7232 H         1 UNK         0.3000 
    116 H116       28.3528    0.5099  -11.4421 H         1 UNK         0.0850 
    117 H117       29.8130   -1.3991  -10.7631 H         1 UNK         0.0810 
    118 H118       28.1094   -1.8278  -10.7338 H         1 UNK         0.0810 
    119 H119       28.9647   -1.5154   -9.2288 H         1 UNK         0.0810 
    120 H120       29.1927    0.6344   -7.9795 H         1 UNK         0.3040 
    121 H121       30.5271    1.8559   -6.7203 H         1 UNK         0.0766 
    122 H122       29.3424    3.8020   -7.6989 H         1 UNK         0.0812 
    123 H123       30.5508    3.9298   -8.9740 H         1 UNK         0.0812 
    124 H124       31.0034    4.2054   -7.2983 H         1 UNK         0.0812 
    125 H125       31.9599    2.1237   -9.9796 H         1 UNK         0.3205 
    126 H126       34.7166    2.1437   -8.9369 H         1 UNK         0.0754 
    127 H127       35.3066    2.4854  -11.3302 H         1 UNK         0.0769 
    128 H128       34.0767    3.6309  -10.8248 H         1 UNK         0.0769 
    129 H129       33.6300    2.2327  -11.8026 H         1 UNK         0.0769 
    130 H130       33.7450   -0.0785   -7.9959 H         1 UNK         0.2981 
    131 H131       33.9009   -2.3681   -9.7467 H         1 UNK         0.0541 
    132 H132       36.9892   -3.9770   -8.9338 H         1 UNK         0.3459 
    133 H133       35.3556   -4.2559   -9.4834 H         1 UNK         0.3459 
    134 H134       33.6536   -2.2488   -6.6939 H         1 UNK         0.0612 
    135 H135       33.3932   -3.6689   -7.6860 H         1 UNK         0.0612 
    136 H136       31.0060   -4.2367   -7.0131 H         1 UNK         0.0624 
    137 H137       29.6670   -3.1149   -6.9496 H         1 UNK         0.0624 
@<TRIPOS>BOND
     1    1    2 1    
     2    1   72 1    
     3    1   73 1    
     4    1   74 1    
     5    2    3 2    
     6    2    4 am   BACKBONE|DICT|INTERRES
     7    4    5 1    
     8    4   75 1    
     9    5    6 1    
    10    5   35 1    
    11    5   76 1    
    12    6    7 1    
    13    6   77 1    
    14    6   78 1    
    15    7    8 1    
    16    8    9 1    
    17    8   79 1    
    18    8   80 1    
    19    9   10 ar   
    20    9   14 ar   
    21   10   11 ar   
    22   10   81 1    
    23   11   12 ar   
    24   11   71 1    
    25   12   13 ar   
    26   12   82 1    
    27   13   14 ar   
    28   13   15 1    
    29   14   83 1    
    30   15   16 1    
    31   15   84 1    
    32   15   85 1    
    33   16   17 1    
    34   17   18 1    
    35   17   86 1    
    36   17   87 1    
    37   18   19 1    
    38   18   37 1    
    39   18   88 1    
    40   19   20 am   BACKBONE|DICT|INTERRES
    41   19   89 1    
    42   20   21 2    
    43   20   22 1    
    44   22   23 1    
    45   22   24 1    
    46   22   90 1    
    47   23   91 1    
    48   23   92 1    
    49   23   93 1    
    50   24   25 am   BACKBONE|DICT|INTERRES
    51   24   94 1    
    52   25   26 2    
    53   25   27 1    
    54   27   28 1    
    55   27   29 1    
    56   27   95 1    
    57   28   96 1    
    58   28   97 1    
    59   28   98 1    
    60   29   30 am   BACKBONE|DICT|INTERRES
    61   29   99 1    
    62   30   31 2    
    63   30   32 1    
    64   32   33 1    
    65   32   34 1    
    66   32  100 1    
    67   33  101 1    
    68   33  102 1    
    69   33  103 1    
    70   34   35 am   BACKBONE|DICT|INTERRES
    71   34  104 1    
    72   35   36 2    
    73   37   38 2    
    74   37   39 am   BACKBONE|DICT|INTERRES
    75   39   40 1    
    76   39  105 1    
    77   40   41 1    
    78   40   42 1    
    79   40  106 1    
    80   41  107 1    
    81   41  108 1    
    82   41  109 1    
    83   42   43 2    
    84   42   44 am   BACKBONE|DICT|INTERRES
    85   44   45 1    
    86   44  110 1    
    87   45   46 1    
    88   45   47 1    
    89   45  111 1    
    90   46  112 1    
    91   46  113 1    
    92   46  114 1    
    93   47   48 2    
    94   47   49 am   BACKBONE|DICT|INTERRES
    95   49   50 1    
    96   49  115 1    
    97   50   51 1    
    98   50   52 1    
    99   50  116 1    
   100   51  117 1    
   101   51  118 1    
   102   51  119 1    
   103   52   53 2    
   104   52   54 am   BACKBONE|DICT|INTERRES
   105   54   55 1    
   106   54  120 1    
   107   55   56 1    
   108   55   57 1    
   109   55  121 1    
   110   56  122 1    
   111   56  123 1    
   112   56  124 1    
   113   57   58 2    
   114   57   59 am   BACKBONE|DICT|INTERRES
   115   59   60 1    
   116   59  125 1    
   117   60   61 1    
   118   60   62 1    
   119   60  126 1    
   120   61  127 1    
   121   61  128 1    
   122   61  129 1    
   123   62   63 2    
   124   62   64 am   BACKBONE|DICT|INTERRES
   125   64   65 1    
   126   64  130 1    
   127   65   66 1    
   128   65   69 1    
   129   65  131 1    
   130   66   67 am   BACKBONE|DICT|INTERRES
   131   66   68 2    
   132   67  132 1    
   133   67  133 1    
   134   69   70 1    
   135   69  134 1    
   136   69  135 1    
   137   70   71 1    
   138   71  136 1    
   139   71  137 1    
@<TRIPOS>SUBSTRUCTURE
     1 UNK         1 GROUP             0       ****    0 ROOT    
