@<TRIPOS>MOLECULE
3R137
137   139    1
SMALL
USER_CHARGES


@<TRIPOS>ATOM
      1 CA         30.7069   -7.4572   -2.7862 C.3       0 UNK        -0.2020 
      2 C          30.0268   -6.5036   -1.8153 C.2       0 UNK         0.4855 
      3 O          29.7846   -6.8707   -0.6648 O.2       0 UNK        -0.5197 
      4 N          29.7275   -5.2797   -2.2667 N.am      1 UNK        -0.4892 
      5 CA         29.0203   -4.2499   -1.4984 C.3       1 UNK         0.0835 
      6 C6         29.0997   -2.8701   -2.1943 C.3       12 UNK        -0.0855 
      7 S7         30.8014   -2.2127   -2.1997 S.3       12 UNK        -0.2931 
      8 C8         30.6060   -0.6741   -1.2415 C.3       12 UNK         0.0378 
      9 C9         29.8069    0.3643   -2.0158 C.ar      12 UNK        -0.0802 
     10 C10        30.3788    0.9935   -3.1239 C.ar      12 UNK        -0.0944 
     11 C11        29.6417    1.9094   -3.8776 C.ar      12 UNK        -0.0787 
     12 C12        28.3342    2.2239   -3.4987 C.ar      12 UNK        -0.0862 
     13 C13        27.7519    1.6031   -2.3904 C.ar      12 UNK        -0.0733 
     14 C14        28.4945    0.6791   -1.6478 C.ar      12 UNK        -0.0832 
     15 C15        26.3145    1.9126   -2.0041 C.3       12 UNK         0.0240 
     16 S16        25.1698    0.6421   -2.6284 S.3       12 UNK        -0.2522 
     17 C17        25.0420    1.0560   -4.4032 C.3       12 UNK        -0.0967 
     18 CA         25.8889    0.1344   -5.3186 C.3       5 UNK         0.0660 
     19 N          25.5876   -1.2819   -5.1103 N.am      5 UNK        -0.4015 
     20 C          26.4164   -2.2949   -5.3794 C.2       4 UNK         0.4946 
     21 O          27.5907   -2.1407   -5.7222 O.2       4 UNK        -0.5353 
     22 CA         25.8328   -3.7197   -5.2667 C.3       4 UNK         0.0277 
     23 CB         26.9135   -4.8099   -5.4017 C.3       4 UNK        -0.1981 
     24 N          25.0577   -3.9523   -4.0394 N.am      4 UNK        -0.4209 
     25 C          23.7970   -3.5363   -3.8355 C.2       3 UNK         0.4942 
     26 O          23.1913   -2.8212   -4.6352 O.2       3 UNK        -0.5208 
     27 CA         23.0654   -3.9859   -2.5568 C.3       3 UNK         0.0250 
     28 CB         22.0339   -5.0770   -2.8894 C.3       3 UNK        -0.1990 
     29 N          23.9573   -4.4839   -1.5103 N.am      3 UNK        -0.4232 
     30 C          24.6620   -3.7081   -0.6779 C.2       2 UNK         0.4993 
     31 O          24.6111   -2.4784   -0.6770 O.2       2 UNK        -0.5286 
     32 CA         25.6084   -4.4139    0.3107 C.3       2 UNK         0.0209 
     33 CB         25.2729   -5.9033    0.5602 C.3       2 UNK        -0.1931 
     34 N          27.0081   -4.2543   -0.1007 N.am      2 UNK        -0.4546 
     35 C          27.5478   -4.6412   -1.2664 C.2       1 UNK         0.5154 
     36 O          26.9235   -5.2350   -2.1506 O.2       1 UNK        -0.5181 
     37 C          25.6303    0.4706   -6.8003 C.2       5 UNK         0.5014 
     38 O          24.6384   -0.0025   -7.3628 O.2       5 UNK        -0.5248 
     39 N          26.4953    1.2912   -7.4030 N.am      6 UNK        -0.4434 
     40 CA         26.4331    1.7048   -8.8040 C.3       6 UNK         0.0363 
     41 CB         26.8779    0.5445   -9.7231 C.3       6 UNK        -0.1936 
     42 C          27.2698    2.9821   -8.9941 C.2       6 UNK         0.5081 
     43 O          27.4908    3.7228   -8.0329 O.2       6 UNK        -0.5248 
     44 N          27.7180    3.2309  -10.2293 N.am      7 UNK        -0.4718 
     45 CA         28.5564    4.3659  -10.6103 C.3       7 UNK         0.0273 
     46 CB         28.3670    4.6330  -12.1154 C.3       7 UNK        -0.1935 
     47 C          30.0352    4.1301  -10.2479 C.2       7 UNK         0.5018 
     48 O          30.8222    3.7625  -11.1229 O.2       7 UNK        -0.5186 
     49 N          30.3785    4.3507   -8.9704 N.am      8 UNK        -0.4240 
     50 CA         31.7296    4.4075   -8.3888 C.3       8 UNK         0.0235 
     51 CB         32.4212    5.7294   -8.7876 C.3       8 UNK        -0.2000 
     52 C          32.5986    3.1700   -8.6869 C.2       8 UNK         0.4941 
     53 O          32.5587    2.2022   -7.9302 O.2       8 UNK        -0.5273 
     54 N          33.3585    3.2035   -9.7902 N.am      9 UNK        -0.4262 
     55 CA         34.1633    2.0830  -10.2868 C.3       9 UNK         0.0264 
     56 CB         35.0201    2.5629  -11.4694 C.3       9 UNK        -0.1955 
     57 C          33.3273    0.8520  -10.6899 C.2       9 UNK         0.5031 
     58 O          33.8584   -0.2592  -10.6867 O.2       9 UNK        -0.5390 
     59 N          32.0447    1.0618  -11.0192 N.am      10 UNK        -0.4204 
     60 CA         31.0886    0.0072  -11.3585 C.3       10 UNK         0.0237 
     61 CB         29.9369    0.6260  -12.1688 C.3       10 UNK        -0.1985 
     62 C          30.5374   -0.7640  -10.1418 C.2       10 UNK         0.4970 
     63 O          29.8798   -1.7838  -10.3540 O.2       10 UNK        -0.4914 
     64 N          30.7576   -0.2714   -8.9128 N.am      11 UNK        -0.4285 
     65 CA         30.2546   -0.8824   -7.6690 C.3       11 UNK         0.1007 
     66 C          30.8223   -2.3023   -7.3926 C.2       11 UNK         0.5703 
     67 N          30.0787   -3.1271   -6.6688 N.am      11 UNK        -0.7361 
     68 O          31.9349   -2.6469   -7.7883 O.2       11 UNK        -0.4986 
     69 C69        30.4802    0.0323   -6.4400 C.3       12 UNK        -0.0947 
     70 S70        29.6513    1.6431   -6.6102 S.3       12 UNK        -0.2240 
     71 C71        30.2396    2.5190   -5.1327 C.3       12 UNK         0.0194 
     72 H72        30.8707   -6.9990   -3.7615 H         1 UNK         0.0906 
     73 H73        31.6737   -7.7688   -2.3915 H         1 UNK         0.0906 
     74 H74        30.0938   -8.3467   -2.9288 H         1 UNK         0.0906 
     75 H75        29.9521   -5.0307   -3.2188 H         1 UNK         0.3140 
     76 H76        29.5044   -4.1764   -0.5217 H         1 UNK         0.1085 
     77 H77        28.4405   -2.1538   -1.7018 H         1 UNK         0.0836 
     78 H78        28.7487   -2.9311   -3.2262 H         1 UNK         0.0836 
     79 H79        31.5940   -0.2709   -1.0145 H         1 UNK         0.0731 
     80 H80        30.1380   -0.8966   -0.2812 H         1 UNK         0.0731 
     81 H81        31.3861    0.7370   -3.4231 H         1 UNK         0.1312 
     82 H82        27.7617    2.9281   -4.0869 H         1 UNK         0.1406 
     83 H83        28.0391    0.1908   -0.7969 H         1 UNK         0.1631 
     84 H84        26.0140    2.8968   -2.3666 H         1 UNK         0.0717 
     85 H85        26.2322    1.9529   -0.9170 H         1 UNK         0.0717 
     86 H86        23.9856    0.9901   -4.6723 H         1 UNK         0.0934 
     87 H87        25.3208    2.1006   -4.5520 H         1 UNK         0.0934 
     88 H88        26.9459    0.2996   -5.0983 H         1 UNK         0.0739 
     89 H89        24.6232   -1.5119   -4.8935 H         1 UNK         0.3093 
     90 H90        25.1562   -3.8375   -6.1159 H         1 UNK         0.0818 
     91 H91        27.6825   -4.7141   -4.6356 H         1 UNK         0.0819 
     92 H92        26.4850   -5.8090   -5.3232 H         1 UNK         0.0819 
     93 H93        27.4114   -4.7483   -6.3702 H         1 UNK         0.0819 
     94 H94        25.5253   -4.4892   -3.3135 H         1 UNK         0.3041 
     95 H95        22.5263   -3.1175   -2.1712 H         1 UNK         0.0784 
     96 H96        21.3259   -4.7290   -3.6431 H         1 UNK         0.0793 
     97 H97        22.5094   -5.9774   -3.2806 H         1 UNK         0.0793 
     98 H98        21.4544   -5.3572   -2.0095 H         1 UNK         0.0793 
     99 H99        24.0923   -5.4837   -1.4610 H         1 UNK         0.3024 
    100 H100       25.4954   -3.8895    1.2614 H         1 UNK         0.1171 
    101 H101       25.9003   -6.3135    1.3517 H         1 UNK         0.0786 
    102 H102       24.2373   -6.0247    0.8812 H         1 UNK         0.0786 
    103 H103       25.4217   -6.5233   -0.3243 H         1 UNK         0.0786 
    104 H104       27.5890   -3.7413    0.5483 H         1 UNK         0.2977 
    105 H105       27.2689    1.6932   -6.8847 H         1 UNK         0.3127 
    106 H106       25.4003    1.9680   -9.0416 H         1 UNK         0.0770 
    107 H107       27.9290    0.3050   -9.5726 H         1 UNK         0.0814 
    108 H108       26.7358    0.7829  -10.7773 H         1 UNK         0.0814 
    109 H109       26.3052   -0.3630   -9.5328 H         1 UNK         0.0814 
    110 H110       27.4983    2.5719  -10.9615 H         1 UNK         0.2983 
    111 H111       28.2198    5.2560  -10.0735 H         1 UNK         0.0947 
    112 H112       28.6485    3.7707  -12.7214 H         1 UNK         0.0806 
    113 H113       28.9810    5.4735  -12.4419 H         1 UNK         0.0806 
    114 H114       27.3311    4.8815  -12.3470 H         1 UNK         0.0806 
    115 H115       29.6189    4.5209   -8.3215 H         1 UNK         0.3000 
    116 H116       31.5945    4.4247   -7.3061 H         1 UNK         0.0850 
    117 H117       33.4339    5.7819   -8.3849 H         1 UNK         0.0810 
    118 H118       31.8767    6.5875   -8.3932 H         1 UNK         0.0810 
    119 H119       32.4877    5.8547   -9.8688 H         1 UNK         0.0810 
    120 H120       33.2925    4.0172  -10.3853 H         1 UNK         0.3040 
    121 H121       34.8317    1.7719   -9.4811 H         1 UNK         0.0766 
    122 H122       35.6526    1.7572  -11.8451 H         1 UNK         0.0812 
    123 H123       35.6797    3.3801  -11.1769 H         1 UNK         0.0812 
    124 H124       34.4035    2.9077  -12.3005 H         1 UNK         0.0812 
    125 H125       31.6937    2.0171  -11.0196 H         1 UNK         0.3205 
    126 H126       31.5938   -0.7213  -11.9963 H         1 UNK         0.0754 
    127 H127       29.3819    1.3558  -11.5812 H         1 UNK         0.0769 
    128 H128       29.2291   -0.1378  -12.4940 H         1 UNK         0.0769 
    129 H129       30.3051    1.1279  -13.0639 H         1 UNK         0.0769 
    130 H130       31.3259    0.5579   -8.7947 H         1 UNK         0.2981 
    131 H131       29.1761   -0.9962   -7.7985 H         1 UNK         0.0541 
    132 H132       29.1743   -2.8193   -6.3126 H         1 UNK         0.3459 
    133 H133       30.4213   -4.0503   -6.4617 H         1 UNK         0.3459 
    134 H134       31.5458    0.1966   -6.2710 H         1 UNK         0.0612 
    135 H135       30.0890   -0.4461   -5.5401 H         1 UNK         0.0612 
    136 H136       29.9544    3.5693   -5.2063 H         1 UNK         0.0624 
    137 H137       31.3301    2.4940   -5.1033 H         1 UNK         0.0624 
@<TRIPOS>BOND
     1    1    2 1    
     2    1   72 1    
     3    1   73 1    
     4    1   74 1    
     5    2    3 2    
     6    2    4 am   BACKBONE|DICT|INTERRES
     7    4    5 1    
     8    4   75 1    
     9    5    6 1    
    10    5   35 1    
    11    5   76 1    
    12    6    7 1    
    13    6   77 1    
    14    6   78 1    
    15    7    8 1    
    16    8    9 1    
    17    8   79 1    
    18    8   80 1    
    19    9   10 ar   
    20    9   14 ar   
    21   10   11 ar   
    22   10   81 1    
    23   11   12 ar   
    24   11   71 1    
    25   12   13 ar   
    26   12   82 1    
    27   13   14 ar   
    28   13   15 1    
    29   14   83 1    
    30   15   16 1    
    31   15   84 1    
    32   15   85 1    
    33   16   17 1    
    34   17   18 1    
    35   17   86 1    
    36   17   87 1    
    37   18   19 1    
    38   18   37 1    
    39   18   88 1    
    40   19   20 am   BACKBONE|DICT|INTERRES
    41   19   89 1    
    42   20   21 2    
    43   20   22 1    
    44   22   23 1    
    45   22   24 1    
    46   22   90 1    
    47   23   91 1    
    48   23   92 1    
    49   23   93 1    
    50   24   25 am   BACKBONE|DICT|INTERRES
    51   24   94 1    
    52   25   26 2    
    53   25   27 1    
    54   27   28 1    
    55   27   29 1    
    56   27   95 1    
    57   28   96 1    
    58   28   97 1    
    59   28   98 1    
    60   29   30 am   BACKBONE|DICT|INTERRES
    61   29   99 1    
    62   30   31 2    
    63   30   32 1    
    64   32   33 1    
    65   32   34 1    
    66   32  100 1    
    67   33  101 1    
    68   33  102 1    
    69   33  103 1    
    70   34   35 am   BACKBONE|DICT|INTERRES
    71   34  104 1    
    72   35   36 2    
    73   37   38 2    
    74   37   39 am   BACKBONE|DICT|INTERRES
    75   39   40 1    
    76   39  105 1    
    77   40   41 1    
    78   40   42 1    
    79   40  106 1    
    80   41  107 1    
    81   41  108 1    
    82   41  109 1    
    83   42   43 2    
    84   42   44 am   BACKBONE|DICT|INTERRES
    85   44   45 1    
    86   44  110 1    
    87   45   46 1    
    88   45   47 1    
    89   45  111 1    
    90   46  112 1    
    91   46  113 1    
    92   46  114 1    
    93   47   48 2    
    94   47   49 am   BACKBONE|DICT|INTERRES
    95   49   50 1    
    96   49  115 1    
    97   50   51 1    
    98   50   52 1    
    99   50  116 1    
   100   51  117 1    
   101   51  118 1    
   102   51  119 1    
   103   52   53 2    
   104   52   54 am   BACKBONE|DICT|INTERRES
   105   54   55 1    
   106   54  120 1    
   107   55   56 1    
   108   55   57 1    
   109   55  121 1    
   110   56  122 1    
   111   56  123 1    
   112   56  124 1    
   113   57   58 2    
   114   57   59 am   BACKBONE|DICT|INTERRES
   115   59   60 1    
   116   59  125 1    
   117   60   61 1    
   118   60   62 1    
   119   60  126 1    
   120   61  127 1    
   121   61  128 1    
   122   61  129 1    
   123   62   63 2    
   124   62   64 am   BACKBONE|DICT|INTERRES
   125   64   65 1    
   126   64  130 1    
   127   65   66 1    
   128   65   69 1    
   129   65  131 1    
   130   66   67 am   BACKBONE|DICT|INTERRES
   131   66   68 2    
   132   67  132 1    
   133   67  133 1    
   134   69   70 1    
   135   69  134 1    
   136   69  135 1    
   137   70   71 1    
   138   71  136 1    
   139   71  137 1    
@<TRIPOS>SUBSTRUCTURE
     1 UNK         1 GROUP             0       ****    0 ROOT    
