@<TRIPOS>MOLECULE
3R137
137   139    1
SMALL
USER_CHARGES


@<TRIPOS>ATOM
      1 CA         27.1842   -7.6409   -2.5966 C.3       0 UNK        -0.2020 
      2 C          27.0860   -6.2077   -2.0977 C.2       0 UNK         0.4855 
      3 O          27.1901   -5.2784   -2.8965 O.2       0 UNK        -0.5197 
      4 N          26.8681   -6.0249   -0.7877 N.am      1 UNK        -0.4892 
      5 CA         26.7930   -4.7581   -0.0322 C.3       1 UNK         0.0835 
      6 C6         28.0693   -3.8798   -0.1264 C.3       12 UNK        -0.0855 
      7 S7         29.5948   -4.7804    0.3120 S.3       12 UNK        -0.2931 
      8 C8         30.8628   -3.5161   -0.0553 C.3       12 UNK         0.0378 
      9 C9         31.0587   -3.1523   -1.5313 C.ar      12 UNK        -0.0802 
     10 C10        31.8837   -2.0653   -1.8355 C.ar      12 UNK        -0.0944 
     11 C11        32.1286   -1.6839   -3.1583 C.ar      12 UNK        -0.0787 
     12 C12        31.5133   -2.4029   -4.1922 C.ar      12 UNK        -0.0862 
     13 C13        30.6735   -3.4864   -3.9127 C.ar      12 UNK        -0.0733 
     14 C14        30.4668   -3.8635   -2.5836 C.ar      12 UNK        -0.0832 
     15 C15        30.0080   -4.2889   -5.0294 C.3       12 UNK         0.0240 
     16 S16        29.3524   -3.2776   -6.3982 S.3       12 UNK        -0.2522 
     17 C17        28.0629   -2.2870   -5.5689 C.3       12 UNK        -0.0967 
     18 CA         27.4735   -1.2088   -6.5146 C.3       5 UNK         0.0660 
     19 N          26.1264   -0.7873   -6.1035 N.am      5 UNK        -0.4015 
     20 C          25.3292    0.0209   -6.8256 C.2       4 UNK         0.4946 
     21 O          25.6478    0.4846   -7.9203 O.2       4 UNK        -0.5353 
     22 CA         23.9680    0.4299   -6.2356 C.3       4 UNK         0.0277 
     23 CB         22.8547   -0.4642   -6.8035 C.3       4 UNK        -0.1981 
     24 N          23.9108    0.4049   -4.7740 N.am      4 UNK        -0.4209 
     25 C          24.6956    1.1118   -3.9475 C.2       3 UNK         0.4942 
     26 O          25.5374    1.9247   -4.3289 O.2       3 UNK        -0.5208 
     27 CA         24.5595    0.8141   -2.4430 C.3       3 UNK         0.0250 
     28 CB         23.6235    1.8348   -1.7765 C.3       3 UNK        -0.1990 
     29 N          24.0944   -0.5473   -2.1397 N.am      3 UNK        -0.4232 
     30 C          24.7173   -1.6729   -2.5177 C.2       2 UNK         0.4993 
     31 O          25.7383   -1.6932   -3.2113 O.2       2 UNK        -0.5286 
     32 CA         24.0619   -2.9976   -2.1086 C.3       2 UNK         0.0209 
     33 CB         23.3753   -3.6530   -3.3184 C.3       2 UNK        -0.1931 
     34 N          25.0907   -3.8967   -1.5976 N.am      2 UNK        -0.4546 
     35 C          25.5468   -3.8996   -0.3411 C.2       1 UNK         0.5154 
     36 O          25.0274   -3.2476    0.5666 O.2       1 UNK        -0.5181 
     37 C          28.4401   -0.0174   -6.7074 C.2       5 UNK         0.5014 
     38 O          29.2961   -0.0651   -7.5947 O.2       5 UNK        -0.5248 
     39 N          28.2433    1.0614   -5.9318 N.am      6 UNK        -0.4434 
     40 CA         28.9930    2.3129   -6.0531 C.3       6 UNK         0.0363 
     41 CB         28.6057    3.2656   -4.9130 C.3       6 UNK        -0.1936 
     42 C          28.8254    3.0041   -7.4180 C.2       6 UNK         0.5081 
     43 O          29.7539    3.6826   -7.8578 O.2       6 UNK        -0.5248 
     44 N          27.6728    2.7977   -8.0678 N.am      7 UNK        -0.4718 
     45 CA         27.3960    3.2558   -9.4255 C.3       7 UNK         0.0273 
     46 CB         25.9308    3.7132   -9.5243 C.3       7 UNK        -0.1935 
     47 C          27.6943    2.1460  -10.4427 C.2       7 UNK         0.5018 
     48 O          28.4407    2.3859  -11.3909 O.2       7 UNK        -0.5186 
     49 N          27.1177    0.9538  -10.2280 N.am      8 UNK        -0.4240 
     50 CA         27.1246   -0.1721  -11.1680 C.3       8 UNK         0.0235 
     51 CB         26.1975   -1.2839  -10.6511 C.3       8 UNK        -0.2000 
     52 C          28.5190   -0.7340  -11.4832 C.2       8 UNK         0.4941 
     53 O          28.7781   -1.0665  -12.6405 O.2       8 UNK        -0.5273 
     54 N          29.3919   -0.8114  -10.4701 N.am      9 UNK        -0.4262 
     55 CA         30.7907   -1.2231  -10.6214 C.3       9 UNK         0.0264 
     56 CB         31.1405   -2.2197   -9.5018 C.3       9 UNK        -0.1955 
     57 C          31.7489   -0.0185  -10.6044 C.2       9 UNK         0.5031 
     58 O          32.9627   -0.2272  -10.6283 O.2       9 UNK        -0.5390 
     59 N          31.2035    1.2083  -10.5295 N.am      10 UNK        -0.4204 
     60 CA         31.9019    2.4891  -10.3478 C.3       10 UNK         0.0237 
     61 CB         32.7044    2.8577  -11.6135 C.3       10 UNK        -0.1985 
     62 C          32.7539    2.5388   -9.0604 C.2       10 UNK         0.4970 
     63 O          33.7837    3.2153   -9.0294 O.2       10 UNK        -0.4914 
     64 N          32.3171    1.8032   -8.0297 N.am      11 UNK        -0.4285 
     65 CA         33.0143    1.6367   -6.7489 C.3       11 UNK         0.1007 
     66 C          32.9459    2.8713   -5.7994 C.2       11 UNK         0.5703 
     67 N          32.1229    3.8783   -6.0695 N.am      11 UNK        -0.7361 
     68 O          33.6685    2.9292   -4.8081 O.2       11 UNK        -0.4986 
     69 C69        32.5622    0.3158   -6.0690 C.3       12 UNK        -0.0947 
     70 S70        33.8620   -0.4492   -5.0443 S.3       12 UNK        -0.2240 
     71 C71        33.0503   -0.4863   -3.4095 C.3       12 UNK         0.0194 
     72 H72        28.1550   -7.8076   -3.0625 H         1 UNK         0.0906 
     73 H73        27.0663   -8.3643   -1.7901 H         1 UNK         0.0906 
     74 H74        26.4118   -7.8323   -3.3409 H         1 UNK         0.0906 
     75 H75        26.7632   -6.8478   -0.2099 H         1 UNK         0.3140 
     76 H76        26.6885   -5.0587    1.0119 H         1 UNK         0.1085 
     77 H77        28.1683   -3.4628   -1.1297 H         1 UNK         0.0836 
     78 H78        27.9874   -3.0226    0.5453 H         1 UNK         0.0836 
     79 H79        30.6207   -2.6138    0.5086 H         1 UNK         0.0731 
     80 H80        31.8161   -3.8745    0.3355 H         1 UNK         0.0731 
     81 H81        32.3487   -1.5127   -1.0299 H         1 UNK         0.1312 
     82 H82        31.6808   -2.1298   -5.2228 H         1 UNK         0.1406 
     83 H83        29.8348   -4.7158   -2.3794 H         1 UNK         0.1631 
     84 H84        29.1922   -4.8960   -4.6353 H         1 UNK         0.0717 
     85 H85        30.7414   -4.9863   -5.4356 H         1 UNK         0.0717 
     86 H86        27.2822   -2.9798   -5.2489 H         1 UNK         0.0934 
     87 H87        28.4578   -1.8405   -4.6539 H         1 UNK         0.0934 
     88 H88        27.3479   -1.6654   -7.4977 H         1 UNK         0.0739 
     89 H89        25.8196   -1.0998   -5.1872 H         1 UNK         0.3093 
     90 H90        23.7781    1.4579   -6.5513 H         1 UNK         0.0818 
     91 H91        21.8695   -0.1265   -6.4812 H         1 UNK         0.0819 
     92 H92        22.8589   -0.4464   -7.8945 H         1 UNK         0.0819 
     93 H93        22.9731   -1.5037   -6.4945 H         1 UNK         0.0819 
     94 H94        23.2487   -0.2338   -4.3591 H         1 UNK         0.3041 
     95 H95        25.5537    0.9234   -2.0045 H         1 UNK         0.0784 
     96 H96        23.9601    2.8551   -1.9669 H         1 UNK         0.0793 
     97 H97        22.6025    1.7533   -2.1518 H         1 UNK         0.0793 
     98 H98        23.5965    1.7027   -0.6946 H         1 UNK         0.0793 
     99 H99        23.2556   -0.6188   -1.5809 H         1 UNK         0.3024 
    100 H100       23.3139   -2.8178   -1.3328 H         1 UNK         0.1171 
    101 H101       22.5899   -3.0111   -3.7193 H         1 UNK         0.0786 
    102 H102       22.9105   -4.6001   -3.0434 H         1 UNK         0.0786 
    103 H103       24.0816   -3.8504   -4.1264 H         1 UNK         0.0786 
    104 H104       25.6612   -4.3815   -2.2866 H         1 UNK         0.2977 
    105 H105       27.4820    1.0542   -5.2640 H         1 UNK         0.3127 
    106 H106       30.0465    2.0640   -5.9407 H         1 UNK         0.0770 
    107 H107       27.5607    3.5704   -4.9792 H         1 UNK         0.0814 
    108 H108       29.2107    4.1728   -4.9429 H         1 UNK         0.0814 
    109 H109       28.7616    2.8051   -3.9374 H         1 UNK         0.0814 
    110 H110       26.9862    2.1807   -7.6512 H         1 UNK         0.2983 
    111 H111       28.0303    4.1117   -9.6682 H         1 UNK         0.0947 
    112 H112       25.6946    4.0491  -10.5349 H         1 UNK         0.0806 
    113 H113       25.7336    4.5483   -8.8520 H         1 UNK         0.0806 
    114 H114       25.2327    2.9133   -9.2742 H         1 UNK         0.0806 
    115 H115       26.5419    0.8345   -9.3941 H         1 UNK         0.3000 
    116 H116       26.7090    0.1983  -12.1076 H         1 UNK         0.0850 
    117 H117       26.1423   -2.1090  -11.3625 H         1 UNK         0.0810 
    118 H118       25.1820   -0.9165  -10.5014 H         1 UNK         0.0810 
    119 H119       26.5468   -1.6935   -9.7038 H         1 UNK         0.0810 
    120 H120       29.1117   -0.5226   -9.5361 H         1 UNK         0.3040 
    121 H121       30.9382   -1.7323  -11.5759 H         1 UNK         0.0766 
    122 H122       32.1497   -2.6137   -9.6274 H         1 UNK         0.0812 
    123 H123       30.4597   -3.0709   -9.5007 H         1 UNK         0.0812 
    124 H124       31.0951   -1.7556   -8.5168 H         1 UNK         0.0812 
    125 H125       30.1946    1.2753  -10.5867 H         1 UNK         0.3205 
    126 H126       31.1230    3.2426  -10.2220 H         1 UNK         0.0754 
    127 H127       33.1120    3.8667  -11.5395 H         1 UNK         0.0769 
    128 H128       32.0747    2.8294  -12.5028 H         1 UNK         0.0769 
    129 H129       33.5427    2.1789  -11.7735 H         1 UNK         0.0769 
    130 H130       31.4482    1.2987   -8.1317 H         1 UNK         0.2981 
    131 H131       34.0709    1.5263   -7.0010 H         1 UNK         0.0541 
    132 H132       31.4999    3.8445   -6.8685 H         1 UNK         0.3459 
    133 H133       32.1088    4.6759   -5.4548 H         1 UNK         0.3459 
    134 H134       32.3107   -0.4266   -6.8280 H         1 UNK         0.0612 
    135 H135       31.6488    0.4576   -5.4902 H         1 UNK         0.0612 
    136 H136       33.8441   -0.4874   -2.6610 H         1 UNK         0.0624 
    137 H137       32.4917    0.4381   -3.2568 H         1 UNK         0.0624 
@<TRIPOS>BOND
     1    1    2 1    
     2    1   72 1    
     3    1   73 1    
     4    1   74 1    
     5    2    3 2    
     6    2    4 am   BACKBONE|DICT|INTERRES
     7    4    5 1    
     8    4   75 1    
     9    5    6 1    
    10    5   35 1    
    11    5   76 1    
    12    6    7 1    
    13    6   77 1    
    14    6   78 1    
    15    7    8 1    
    16    8    9 1    
    17    8   79 1    
    18    8   80 1    
    19    9   10 ar   
    20    9   14 ar   
    21   10   11 ar   
    22   10   81 1    
    23   11   12 ar   
    24   11   71 1    
    25   12   13 ar   
    26   12   82 1    
    27   13   14 ar   
    28   13   15 1    
    29   14   83 1    
    30   15   16 1    
    31   15   84 1    
    32   15   85 1    
    33   16   17 1    
    34   17   18 1    
    35   17   86 1    
    36   17   87 1    
    37   18   19 1    
    38   18   37 1    
    39   18   88 1    
    40   19   20 am   BACKBONE|DICT|INTERRES
    41   19   89 1    
    42   20   21 2    
    43   20   22 1    
    44   22   23 1    
    45   22   24 1    
    46   22   90 1    
    47   23   91 1    
    48   23   92 1    
    49   23   93 1    
    50   24   25 am   BACKBONE|DICT|INTERRES
    51   24   94 1    
    52   25   26 2    
    53   25   27 1    
    54   27   28 1    
    55   27   29 1    
    56   27   95 1    
    57   28   96 1    
    58   28   97 1    
    59   28   98 1    
    60   29   30 am   BACKBONE|DICT|INTERRES
    61   29   99 1    
    62   30   31 2    
    63   30   32 1    
    64   32   33 1    
    65   32   34 1    
    66   32  100 1    
    67   33  101 1    
    68   33  102 1    
    69   33  103 1    
    70   34   35 am   BACKBONE|DICT|INTERRES
    71   34  104 1    
    72   35   36 2    
    73   37   38 2    
    74   37   39 am   BACKBONE|DICT|INTERRES
    75   39   40 1    
    76   39  105 1    
    77   40   41 1    
    78   40   42 1    
    79   40  106 1    
    80   41  107 1    
    81   41  108 1    
    82   41  109 1    
    83   42   43 2    
    84   42   44 am   BACKBONE|DICT|INTERRES
    85   44   45 1    
    86   44  110 1    
    87   45   46 1    
    88   45   47 1    
    89   45  111 1    
    90   46  112 1    
    91   46  113 1    
    92   46  114 1    
    93   47   48 2    
    94   47   49 am   BACKBONE|DICT|INTERRES
    95   49   50 1    
    96   49  115 1    
    97   50   51 1    
    98   50   52 1    
    99   50  116 1    
   100   51  117 1    
   101   51  118 1    
   102   51  119 1    
   103   52   53 2    
   104   52   54 am   BACKBONE|DICT|INTERRES
   105   54   55 1    
   106   54  120 1    
   107   55   56 1    
   108   55   57 1    
   109   55  121 1    
   110   56  122 1    
   111   56  123 1    
   112   56  124 1    
   113   57   58 2    
   114   57   59 am   BACKBONE|DICT|INTERRES
   115   59   60 1    
   116   59  125 1    
   117   60   61 1    
   118   60   62 1    
   119   60  126 1    
   120   61  127 1    
   121   61  128 1    
   122   61  129 1    
   123   62   63 2    
   124   62   64 am   BACKBONE|DICT|INTERRES
   125   64   65 1    
   126   64  130 1    
   127   65   66 1    
   128   65   69 1    
   129   65  131 1    
   130   66   67 am   BACKBONE|DICT|INTERRES
   131   66   68 2    
   132   67  132 1    
   133   67  133 1    
   134   69   70 1    
   135   69  134 1    
   136   69  135 1    
   137   70   71 1    
   138   71  136 1    
   139   71  137 1    
@<TRIPOS>SUBSTRUCTURE
     1 UNK         1 GROUP             0       ****    0 ROOT    
