@<TRIPOS>MOLECULE
3R137
137   139    1
SMALL
USER_CHARGES


@<TRIPOS>ATOM
      1 CA         31.5484    0.2916   -1.4704 C.3       0 UNK        -0.2020 
      2 C          30.5229   -0.7148   -0.9785 C.2       0 UNK         0.4855 
      3 O          30.2050   -0.7398    0.2099 O.2       0 UNK        -0.5197 
      4 N          29.9923   -1.5340   -1.8974 N.am      1 UNK        -0.4892 
      5 CA         28.9983   -2.5958   -1.6557 C.3       1 UNK         0.0835 
      6 C6         29.4922   -3.6510   -0.6197 C.3       12 UNK        -0.0855 
      7 S7         29.0063   -5.3627   -1.0287 S.3       12 UNK        -0.2931 
      8 C8         30.4375   -5.9300   -2.0059 C.3       12 UNK         0.0378 
      9 C9         30.5003   -5.2196   -3.3492 C.ar      12 UNK        -0.0802 
     10 C10        31.4281   -4.1958   -3.5706 C.ar      12 UNK        -0.0944 
     11 C11        31.4427   -3.5038   -4.7857 C.ar      12 UNK        -0.0787 
     12 C12        30.5184   -3.8440   -5.7771 C.ar      12 UNK        -0.0862 
     13 C13        29.5964   -4.8741   -5.5747 C.ar      12 UNK        -0.0733 
     14 C14        29.6012   -5.5676   -4.3617 C.ar      12 UNK        -0.0832 
     15 C15        28.5890   -5.2209   -6.6648 C.3       12 UNK         0.0240 
     16 S16        26.8548   -5.0638   -6.1170 S.3       12 UNK        -0.2522 
     17 C17        26.8010   -3.3450   -5.5161 C.3       12 UNK        -0.0967 
     18 CA         26.5577   -2.3203   -6.6598 C.3       5 UNK         0.0660 
     19 N          25.1929   -1.7799   -6.6311 N.am      5 UNK        -0.4015 
     20 C          24.6621   -0.9478   -7.5403 C.2       4 UNK         0.4946 
     21 O          25.2676   -0.5422   -8.5300 O.2       4 UNK        -0.5353 
     22 CA         23.2206   -0.4621   -7.3112 C.3       4 UNK         0.0277 
     23 CB         22.2327   -1.3221   -8.1153 C.3       4 UNK        -0.1981 
     24 N          22.8310   -0.4611   -5.9004 N.am      4 UNK        -0.4209 
     25 C          23.3072    0.3893   -4.9806 C.2       3 UNK         0.4942 
     26 O          24.0647    1.3252   -5.2473 O.2       3 UNK        -0.5208 
     27 CA         22.8802    0.1481   -3.5159 C.3       3 UNK         0.0250 
     28 CB         22.1921   -1.2167   -3.2785 C.3       3 UNK        -0.1990 
     29 N          23.9845    0.3096   -2.5607 N.am      3 UNK        -0.4232 
     30 C          25.1896   -0.2795   -2.6037 C.2       2 UNK         0.4993 
     31 O          25.5765   -0.9894   -3.5374 O.2       2 UNK        -0.5286 
     32 CA         26.1280    0.0194   -1.4166 C.3       2 UNK         0.0209 
     33 CB         25.4383   -0.1747   -0.0470 C.3       2 UNK        -0.1931 
     34 N          27.3844   -0.7397   -1.4867 N.am      2 UNK        -0.4546 
     35 C          27.5712   -2.0644   -1.3675 C.2       1 UNK         0.5154 
     36 O          26.6750   -2.8575   -1.0747 O.2       1 UNK        -0.5181 
     37 C          27.6141   -1.2000   -6.6312 C.2       5 UNK         0.5014 
     38 O          28.5207   -1.1929   -7.4677 O.2       5 UNK        -0.5248 
     39 N          27.4404   -0.2566   -5.6935 N.am      6 UNK        -0.4434 
     40 CA         28.2747    0.9368   -5.5403 C.3       6 UNK         0.0363 
     41 CB         27.8346    1.7239   -4.2980 C.3       6 UNK        -0.1936 
     42 C          28.2875    1.8504   -6.7743 C.2       6 UNK         0.5081 
     43 O          29.3230    2.4527   -7.0564 O.2       6 UNK        -0.5248 
     44 N          27.1547    1.9305   -7.4838 N.am      7 UNK        -0.4718 
     45 CA         27.0205    2.6803   -8.7310 C.3       7 UNK         0.0273 
     46 CB         25.5384    3.0008   -8.9861 C.3       7 UNK        -0.1935 
     47 C          27.6358    1.9247   -9.9187 C.2       7 UNK         0.5018 
     48 O          28.3995    2.5206  -10.6778 O.2       7 UNK        -0.5186 
     49 N          27.3015    0.6328  -10.0532 N.am      8 UNK        -0.4240 
     50 CA         27.7208   -0.2408  -11.1523 C.3       8 UNK         0.0235 
     51 CB         26.9793   -1.5846  -11.0588 C.3       8 UNK        -0.2000 
     52 C          29.2377   -0.4672  -11.2140 C.2       8 UNK         0.4941 
     53 O          29.8174   -0.3627  -12.2958 O.2       8 UNK        -0.5273 
     54 N          29.8545   -0.7602  -10.0612 N.am      9 UNK        -0.4262 
     55 CA         31.3034   -0.9549   -9.9467 C.3       9 UNK         0.0264 
     56 CB         31.5850   -1.9133   -8.7831 C.3       9 UNK        -0.1955 
     57 C          32.0740    0.3603   -9.7441 C.2       9 UNK         0.5031 
     58 O          33.3034    0.3441   -9.8153 O.2       9 UNK        -0.5390 
     59 N          31.3530    1.4548   -9.4565 N.am      10 UNK        -0.4204 
     60 CA         31.8511    2.7888   -9.0993 C.3       10 UNK         0.0237 
     61 CB         32.6361    3.4235  -10.2675 C.3       10 UNK        -0.1985 
     62 C          32.6291    2.8268   -7.7657 C.2       10 UNK         0.4970 
     63 O          33.3733    3.7811   -7.5318 O.2       10 UNK        -0.4914 
     64 N          32.4410    1.8114   -6.9094 N.am      11 UNK        -0.4285 
     65 CA         33.0248    1.7366   -5.5629 C.3       11 UNK         0.1007 
     66 C          32.3003    2.6106   -4.4992 C.2       11 UNK         0.5703 
     67 N          31.1208    3.1561   -4.7742 N.am      11 UNK        -0.7361 
     68 O          32.8328    2.8170   -3.4117 O.2       11 UNK        -0.4986 
     69 C69        33.2478    0.2714   -5.0970 C.3       12 UNK        -0.0947 
     70 S70        31.7377   -0.7453   -4.9484 S.3       12 UNK        -0.2240 
     71 C71        32.4695   -2.4085   -5.0389 C.3       12 UNK         0.0194 
     72 H72        32.4272   -0.2171   -1.8657 H         1 UNK         0.0906 
     73 H73        31.1233    0.9138   -2.2572 H         1 UNK         0.0906 
     74 H74        31.8714    0.9468   -0.6617 H         1 UNK         0.0906 
     75 H75        30.3075   -1.4568   -2.8568 H         1 UNK         0.3140 
     76 H76        28.9008   -3.0918   -2.6217 H         1 UNK         0.1085 
     77 H77        30.5803   -3.6310   -0.5435 H         1 UNK         0.0836 
     78 H78        29.1342   -3.4110    0.3834 H         1 UNK         0.0836 
     79 H79        31.3570   -5.7793   -1.4380 H         1 UNK         0.0731 
     80 H80        30.3520   -7.0055   -2.1685 H         1 UNK         0.0731 
     81 H81        32.1290   -3.9283   -2.7915 H         1 UNK         0.1312 
     82 H82        30.5108   -3.3010   -6.7084 H         1 UNK         0.1406 
     83 H83        28.8790   -6.3550   -4.1916 H         1 UNK         0.1631 
     84 H84        28.7628   -6.2458   -6.9952 H         1 UNK         0.0717 
     85 H85        28.7339   -4.5872   -7.5415 H         1 UNK         0.0717 
     86 H86        27.7110   -3.1395   -4.9500 H         1 UNK         0.0934 
     87 H87        26.0101   -3.2913   -4.7664 H         1 UNK         0.0934 
     88 H88        26.6731   -2.8171   -7.6254 H         1 UNK         0.0739 
     89 H89        24.6381   -2.0193   -5.8228 H         1 UNK         0.3093 
     90 H90        23.1597    0.5637   -7.6818 H         1 UNK         0.0818 
     91 H91        21.2141   -0.9436   -8.0281 H         1 UNK         0.0819 
     92 H92        22.4878   -1.3177   -9.1762 H         1 UNK         0.0819 
     93 H93        22.2360   -2.3615   -7.7844 H         1 UNK         0.0819 
     94 H94        22.1999   -1.1899   -5.5993 H         1 UNK         0.3041 
     95 H95        22.1562    0.9305   -3.2836 H         1 UNK         0.0784 
     96 H96        21.2727   -1.3123   -3.8574 H         1 UNK         0.0793 
     97 H97        22.8445   -2.0526   -3.5358 H         1 UNK         0.0793 
     98 H98        21.9125   -1.3342   -2.2313 H         1 UNK         0.0793 
     99 H99        23.7896    0.9249   -1.7837 H         1 UNK         0.3024 
    100 H100       26.4063    1.0710   -1.5020 H         1 UNK         0.1171 
    101 H101       26.1477   -0.0582    0.7725 H         1 UNK         0.0786 
    102 H102       24.9839   -1.1619    0.0440 H         1 UNK         0.0786 
    103 H103       24.6491    0.5605    0.1117 H         1 UNK         0.0786 
    104 H104       28.2036   -0.2021   -1.7278 H         1 UNK         0.2977 
    105 H105       26.6781   -0.3776   -5.0302 H         1 UNK         0.3127 
    106 H106       29.2999    0.6041   -5.3847 H         1 UNK         0.0770 
    107 H107       26.7669    1.9468   -4.3180 H         1 UNK         0.0814 
    108 H108       28.3629    2.6748   -4.2222 H         1 UNK         0.0814 
    109 H109       28.0533    1.1682   -3.3893 H         1 UNK         0.0814 
    110 H110       26.3581    1.3857   -7.1841 H         1 UNK         0.2983 
    111 H111       27.5553    3.6273   -8.6263 H         1 UNK         0.0947 
    112 H112       25.4191    3.5859   -9.8990 H         1 UNK         0.0806 
    113 H113       25.1140    3.5849   -8.1693 H         1 UNK         0.0806 
    114 H114       24.9373    2.0980   -9.0978 H         1 UNK         0.0806 
    115 H115       26.6395    0.2295   -9.3903 H         1 UNK         0.3000 
    116 H116       27.4243    0.2447  -12.0844 H         1 UNK         0.0850 
    117 H117       27.2734   -2.2532  -11.8690 H         1 UNK         0.0810 
    118 H118       25.9002   -1.4461  -11.1288 H         1 UNK         0.0810 
    119 H119       27.1885   -2.0958  -10.1181 H         1 UNK         0.0810 
    120 H120       29.3055   -0.8542   -9.2079 H         1 UNK         0.3040 
    121 H121       31.6810   -1.4176  -10.8612 H         1 UNK         0.0766 
    122 H122       32.6521   -2.1196   -8.6901 H         1 UNK         0.0812 
    123 H123       31.2506   -1.4881   -7.8371 H         1 UNK         0.0812 
    124 H124       31.0810   -2.8684   -8.9297 H         1 UNK         0.0812 
    125 H125       30.3469    1.3560   -9.4354 H         1 UNK         0.3205 
    126 H126       30.9627    3.4016   -8.9407 H         1 UNK         0.0754 
    127 H127       32.8575    4.4723  -10.0665 H         1 UNK         0.0769 
    128 H128       32.0633    3.3877  -11.1943 H         1 UNK         0.0769 
    129 H129       33.5875    2.9196  -10.4400 H         1 UNK         0.0769 
    130 H130       31.7805    1.0880   -7.1487 H         1 UNK         0.2981 
    131 H131       34.0238    2.1710   -5.6332 H         1 UNK         0.0541 
    132 H132       30.6809    3.7412   -4.0833 H         1 UNK         0.3459 
    133 H133       30.6634    2.9857   -5.6629 H         1 UNK         0.3459 
    134 H134       33.7659    0.2539   -4.1365 H         1 UNK         0.0612 
    135 H135       33.9212   -0.2202   -5.8009 H         1 UNK         0.0612 
    136 H136       32.9188   -2.5512   -6.0226 H         1 UNK         0.0624 
    137 H137       33.2835   -2.4783   -4.3155 H         1 UNK         0.0624 
@<TRIPOS>BOND
     1    1    2 1    
     2    1   72 1    
     3    1   73 1    
     4    1   74 1    
     5    2    3 2    
     6    2    4 am   BACKBONE|DICT|INTERRES
     7    4    5 1    
     8    4   75 1    
     9    5    6 1    
    10    5   35 1    
    11    5   76 1    
    12    6    7 1    
    13    6   77 1    
    14    6   78 1    
    15    7    8 1    
    16    8    9 1    
    17    8   79 1    
    18    8   80 1    
    19    9   10 ar   
    20    9   14 ar   
    21   10   11 ar   
    22   10   81 1    
    23   11   12 ar   
    24   11   71 1    
    25   12   13 ar   
    26   12   82 1    
    27   13   14 ar   
    28   13   15 1    
    29   14   83 1    
    30   15   16 1    
    31   15   84 1    
    32   15   85 1    
    33   16   17 1    
    34   17   18 1    
    35   17   86 1    
    36   17   87 1    
    37   18   19 1    
    38   18   37 1    
    39   18   88 1    
    40   19   20 am   BACKBONE|DICT|INTERRES
    41   19   89 1    
    42   20   21 2    
    43   20   22 1    
    44   22   23 1    
    45   22   24 1    
    46   22   90 1    
    47   23   91 1    
    48   23   92 1    
    49   23   93 1    
    50   24   25 am   BACKBONE|DICT|INTERRES
    51   24   94 1    
    52   25   26 2    
    53   25   27 1    
    54   27   28 1    
    55   27   29 1    
    56   27   95 1    
    57   28   96 1    
    58   28   97 1    
    59   28   98 1    
    60   29   30 am   BACKBONE|DICT|INTERRES
    61   29   99 1    
    62   30   31 2    
    63   30   32 1    
    64   32   33 1    
    65   32   34 1    
    66   32  100 1    
    67   33  101 1    
    68   33  102 1    
    69   33  103 1    
    70   34   35 am   BACKBONE|DICT|INTERRES
    71   34  104 1    
    72   35   36 2    
    73   37   38 2    
    74   37   39 am   BACKBONE|DICT|INTERRES
    75   39   40 1    
    76   39  105 1    
    77   40   41 1    
    78   40   42 1    
    79   40  106 1    
    80   41  107 1    
    81   41  108 1    
    82   41  109 1    
    83   42   43 2    
    84   42   44 am   BACKBONE|DICT|INTERRES
    85   44   45 1    
    86   44  110 1    
    87   45   46 1    
    88   45   47 1    
    89   45  111 1    
    90   46  112 1    
    91   46  113 1    
    92   46  114 1    
    93   47   48 2    
    94   47   49 am   BACKBONE|DICT|INTERRES
    95   49   50 1    
    96   49  115 1    
    97   50   51 1    
    98   50   52 1    
    99   50  116 1    
   100   51  117 1    
   101   51  118 1    
   102   51  119 1    
   103   52   53 2    
   104   52   54 am   BACKBONE|DICT|INTERRES
   105   54   55 1    
   106   54  120 1    
   107   55   56 1    
   108   55   57 1    
   109   55  121 1    
   110   56  122 1    
   111   56  123 1    
   112   56  124 1    
   113   57   58 2    
   114   57   59 am   BACKBONE|DICT|INTERRES
   115   59   60 1    
   116   59  125 1    
   117   60   61 1    
   118   60   62 1    
   119   60  126 1    
   120   61  127 1    
   121   61  128 1    
   122   61  129 1    
   123   62   63 2    
   124   62   64 am   BACKBONE|DICT|INTERRES
   125   64   65 1    
   126   64  130 1    
   127   65   66 1    
   128   65   69 1    
   129   65  131 1    
   130   66   67 am   BACKBONE|DICT|INTERRES
   131   66   68 2    
   132   67  132 1    
   133   67  133 1    
   134   69   70 1    
   135   69  134 1    
   136   69  135 1    
   137   70   71 1    
   138   71  136 1    
   139   71  137 1    
@<TRIPOS>SUBSTRUCTURE
     1 UNK         1 GROUP             0       ****    0 ROOT    
