@<TRIPOS>MOLECULE
3R137
137   139    1
SMALL
USER_CHARGES


@<TRIPOS>ATOM
      1 CA         25.0039   -6.0615    0.5546 C.3       0 UNK        -0.2020 
      2 C          25.8477   -4.8412    0.2198 C.2       0 UNK         0.4855 
      3 O          25.8991   -3.8952    1.0068 O.2       0 UNK        -0.5197 
      4 N          26.5023   -4.8437   -0.9481 N.am      1 UNK        -0.4892 
      5 CA         27.3822   -3.7777   -1.4452 C.3       1 UNK         0.0835 
      6 C6         28.3854   -4.3173   -2.5003 C.3       12 UNK        -0.0855 
      7 S7         29.6648   -5.4068   -1.7864 S.3       12 UNK        -0.2931 
      8 C8         30.8361   -4.2227   -1.0299 C.3       12 UNK         0.0378 
      9 C9         31.2670   -3.1148   -1.9839 C.ar      12 UNK        -0.0802 
     10 C10        32.2095   -3.3643   -2.9844 C.ar      12 UNK        -0.0944 
     11 C11        32.5876   -2.3502   -3.8704 C.ar      12 UNK        -0.0787 
     12 C12        31.9982   -1.0855   -3.7640 C.ar      12 UNK        -0.0862 
     13 C13        31.0445   -0.8220   -2.7747 C.ar      12 UNK        -0.0733 
     14 C14        30.7093   -1.8378   -1.8702 C.ar      12 UNK        -0.0832 
     15 C15        30.3943    0.5604   -2.6968 C.3       12 UNK         0.0240 
     16 S16        28.6298    0.4827   -2.2377 S.3       12 UNK        -0.2522 
     17 C17        27.8782    1.8481   -3.1796 C.3       12 UNK        -0.0967 
     18 CA         27.7288    1.5783   -4.7017 C.3       5 UNK         0.0660 
     19 N          27.2783    0.2227   -5.0361 N.am      5 UNK        -0.4015 
     20 C          27.2771   -0.2871   -6.2775 C.2       4 UNK         0.4946 
     21 O          27.7293    0.3013   -7.2604 O.2       4 UNK        -0.5353 
     22 CA         26.6260   -1.6646   -6.4685 C.3       4 UNK         0.0277 
     23 CB         27.6489   -2.7903   -6.2415 C.3       4 UNK        -0.1981 
     24 N          25.4772   -1.8466   -5.5796 N.am      4 UNK        -0.4209 
     25 C          24.2871   -1.2527   -5.7462 C.2       3 UNK         0.4942 
     26 O          24.0166   -0.5258   -6.7008 O.2       3 UNK        -0.5208 
     27 CA         23.2301   -1.4740   -4.6488 C.3       3 UNK         0.0250 
     28 CB         22.4490   -2.7721   -4.9064 C.3       3 UNK        -0.1990 
     29 N          23.7917   -1.5006   -3.2954 N.am      3 UNK        -0.4232 
     30 C          24.3921   -0.4584   -2.7042 C.2       2 UNK         0.4993 
     31 O          24.5072    0.6505   -3.2267 O.2       2 UNK        -0.5286 
     32 CA         25.0173   -0.7029   -1.3192 C.3       2 UNK         0.0209 
     33 CB         23.9597   -0.5336   -0.2171 C.3       2 UNK        -0.1931 
     34 N          25.7067   -1.9902   -1.1370 N.am      2 UNK        -0.4546 
     35 C          26.5921   -2.5561   -1.9700 C.2       1 UNK         0.5154 
     36 O          26.7980   -2.1442   -3.1108 O.2       1 UNK        -0.5181 
     37 C          26.8117    2.6347   -5.3494 C.2       5 UNK         0.5014 
     38 O          27.3126    3.5658   -5.9800 O.2       5 UNK        -0.5248 
     39 N          25.4888    2.4465   -5.2168 N.am      6 UNK        -0.4434 
     40 CA         24.4505    3.2868   -5.8213 C.3       6 UNK         0.0363 
     41 CB         23.0715    2.8572   -5.2965 C.3       6 UNK        -0.1936 
     42 C          24.4728    3.2689   -7.3595 C.2       6 UNK         0.5081 
     43 O          24.2816    4.3161   -7.9780 O.2       6 UNK        -0.5248 
     44 N          24.7346    2.0942   -7.9498 N.am      7 UNK        -0.4718 
     45 CA         24.9194    1.9108   -9.3935 C.3       7 UNK         0.0273 
     46 CB         24.7986    0.4153   -9.7289 C.3       7 UNK        -0.1935 
     47 C          26.2552    2.4651   -9.9259 C.2       7 UNK         0.5018 
     48 O          26.3974    2.5906  -11.1430 O.2       7 UNK        -0.5186 
     49 N          27.2004    2.7663   -9.0217 N.am      8 UNK        -0.4240 
     50 CA         28.5770    3.2043   -9.2698 C.3       8 UNK         0.0235 
     51 CB         28.6056    4.6025   -9.9238 C.3       8 UNK        -0.2000 
     52 C          29.3828    2.1465  -10.0464 C.2       8 UNK         0.4941 
     53 O          29.9697    2.4543  -11.0869 O.2       8 UNK        -0.5273 
     54 N          29.3688    0.9079   -9.5323 N.am      9 UNK        -0.4262 
     55 CA         30.0790   -0.2475  -10.0858 C.3       9 UNK         0.0264 
     56 CB         29.7331   -1.4930   -9.2554 C.3       9 UNK        -0.1955 
     57 C          31.6044   -0.0494  -10.1322 C.2       9 UNK         0.5031 
     58 O          32.1766    0.5865   -9.2420 O.2       9 UNK        -0.5390 
     59 N          32.2359   -0.6258  -11.1614 N.am      10 UNK        -0.4204 
     60 CA         33.6771   -0.5716  -11.4041 C.3       10 UNK         0.0237 
     61 CB         33.9389   -0.8146  -12.9028 C.3       10 UNK        -0.1985 
     62 C          34.4350   -1.5645  -10.5046 C.2       10 UNK         0.4970 
     63 O          34.9018   -2.5993  -10.9850 O.2       10 UNK        -0.4914 
     64 N          34.5373   -1.2315   -9.2165 N.am      11 UNK        -0.4285 
     65 CA         35.3010   -1.9694   -8.2058 C.3       11 UNK         0.1007 
     66 C          35.9679   -1.0105   -7.1843 C.2       11 UNK         0.5703 
     67 N          36.8905   -1.5127   -6.3742 N.am      11 UNK        -0.7361 
     68 O          35.6620    0.1790   -7.1138 O.2       11 UNK        -0.4986 
     69 C69        34.4764   -3.1143   -7.5513 C.3       12 UNK        -0.0947 
     70 S70        33.0005   -2.5752   -6.6154 S.3       12 UNK        -0.2240 
     71 C71        33.6593   -2.6121   -4.9178 C.3       12 UNK         0.0194 
     72 H72        25.0493   -6.8172   -0.2292 H         1 UNK         0.0906 
     73 H73        25.3524   -6.5143    1.4825 H         1 UNK         0.0906 
     74 H74        23.9617   -5.7721    0.6871 H         1 UNK         0.0906 
     75 H75        26.4138   -5.6450   -1.5572 H         1 UNK         0.3140 
     76 H76        27.9638   -3.3987   -0.6024 H         1 UNK         0.1085 
     77 H77        27.8532   -4.8731   -3.2741 H         1 UNK         0.0836 
     78 H78        28.8887   -3.5116   -3.0345 H         1 UNK         0.0836 
     79 H79        31.7167   -4.7697   -0.6898 H         1 UNK         0.0731 
     80 H80        30.3830   -3.7992   -0.1323 H         1 UNK         0.0731 
     81 H81        32.6490   -4.3489   -3.0684 H         1 UNK         0.1312 
     82 H82        32.2853   -0.3073   -4.4584 H         1 UNK         0.1406 
     83 H83        29.9862   -1.6444   -1.0904 H         1 UNK         0.1631 
     84 H84        30.4922    1.0685   -3.6566 H         1 UNK         0.0717 
     85 H85        30.9271    1.1685   -1.9650 H         1 UNK         0.0717 
     86 H86        26.9029    2.0332   -2.7246 H         1 UNK         0.0934 
     87 H87        28.4615    2.7555   -3.0111 H         1 UNK         0.0934 
     88 H88        28.7163    1.6949   -5.1528 H         1 UNK         0.0739 
     89 H89        26.9518   -0.3556   -4.2697 H         1 UNK         0.3093 
     90 H90        26.2736   -1.7313   -7.4996 H         1 UNK         0.0818 
     91 H91        28.1181   -2.7256   -5.2601 H         1 UNK         0.0819 
     92 H92        27.1865   -3.7734   -6.3295 H         1 UNK         0.0819 
     93 H93        28.4496   -2.7440   -6.9786 H         1 UNK         0.0819 
     94 H94        25.6659   -2.3231   -4.7037 H         1 UNK         0.3041 
     95 H95        22.5280   -0.6390   -4.6989 H         1 UNK         0.0784 
     96 H96        22.0022   -2.7664   -5.9016 H         1 UNK         0.0793 
     97 H97        23.0916   -3.6512   -4.8426 H         1 UNK         0.0793 
     98 H98        21.6370   -2.8958   -4.1895 H         1 UNK         0.0793 
     99 H99        23.7591   -2.3785   -2.7978 H         1 UNK         0.3024 
    100 H100       25.7719    0.0738   -1.1809 H         1 UNK         0.1171 
    101 H101       23.4431    0.4227   -0.3126 H         1 UNK         0.0786 
    102 H102       24.4128   -0.5565    0.7743 H         1 UNK         0.0786 
    103 H103       23.2046   -1.3194   -0.2586 H         1 UNK         0.0786 
    104 H104       25.6010   -2.4374   -0.2301 H         1 UNK         0.2977 
    105 H105       25.1621    1.6823   -4.6266 H         1 UNK         0.3127 
    106 H106       24.6325    4.3148   -5.5012 H         1 UNK         0.0770 
    107 H107       22.8434    1.8244   -5.5624 H         1 UNK         0.0814 
    108 H108       22.2819    3.4845   -5.7123 H         1 UNK         0.0814 
    109 H109       23.0161    2.9421   -4.2111 H         1 UNK         0.0814 
    110 H110       24.7949    1.2594   -7.3751 H         1 UNK         0.2983 
    111 H111       24.1188    2.4436   -9.9112 H         1 UNK         0.0947 
    112 H112       24.8883    0.2449  -10.8025 H         1 UNK         0.0806 
    113 H113       23.8339    0.0143   -9.4179 H         1 UNK         0.0806 
    114 H114       25.5792   -0.1683   -9.2401 H         1 UNK         0.0806 
    115 H115       26.9743    2.6035   -8.0482 H         1 UNK         0.3000 
    116 H116       29.0500    3.2906   -8.2902 H         1 UNK         0.0850 
    117 H117       29.6287    4.9703  -10.0089 H         1 UNK         0.0810 
    118 H118       28.0482    5.3274   -9.3305 H         1 UNK         0.0810 
    119 H119       28.1806    4.5925  -10.9279 H         1 UNK         0.0810 
    120 H120       28.8345    0.7428   -8.6802 H         1 UNK         0.3040 
    121 H121       29.7136   -0.3934  -11.1044 H         1 UNK         0.0766 
    122 H122       28.6592   -1.6807   -9.2518 H         1 UNK         0.0812 
    123 H123       30.0606   -1.3827   -8.2204 H         1 UNK         0.0812 
    124 H124       30.2180   -2.3838   -9.6569 H         1 UNK         0.0812 
    125 H125       31.6932   -1.1647  -11.8212 H         1 UNK         0.3205 
    126 H126       34.0381    0.4315  -11.1655 H         1 UNK         0.0754 
    127 H127       35.0064   -0.7731  -13.1237 H         1 UNK         0.0769 
    128 H128       33.4536   -0.0562  -13.5176 H         1 UNK         0.0769 
    129 H129       33.5765   -1.7910  -13.2270 H         1 UNK         0.0769 
    130 H130       34.0936   -0.3796   -8.8894 H         1 UNK         0.2981 
    131 H131       36.1417   -2.4357   -8.7235 H         1 UNK         0.0541 
    132 H132       37.1604   -2.4825   -6.4249 H         1 UNK         0.3459 
    133 H133       37.3363   -0.9041   -5.7059 H         1 UNK         0.3459 
    134 H134       34.1330   -3.7966   -8.3300 H         1 UNK         0.0612 
    135 H135       35.1154   -3.7202   -6.9074 H         1 UNK         0.0612 
    136 H136       34.4416   -1.8601   -4.8151 H         1 UNK         0.0624 
    137 H137       34.1340   -3.5781   -4.7398 H         1 UNK         0.0624 
@<TRIPOS>BOND
     1    1    2 1    
     2    1   72 1    
     3    1   73 1    
     4    1   74 1    
     5    2    3 2    
     6    2    4 am   BACKBONE|DICT|INTERRES
     7    4    5 1    
     8    4   75 1    
     9    5    6 1    
    10    5   35 1    
    11    5   76 1    
    12    6    7 1    
    13    6   77 1    
    14    6   78 1    
    15    7    8 1    
    16    8    9 1    
    17    8   79 1    
    18    8   80 1    
    19    9   10 ar   
    20    9   14 ar   
    21   10   11 ar   
    22   10   81 1    
    23   11   12 ar   
    24   11   71 1    
    25   12   13 ar   
    26   12   82 1    
    27   13   14 ar   
    28   13   15 1    
    29   14   83 1    
    30   15   16 1    
    31   15   84 1    
    32   15   85 1    
    33   16   17 1    
    34   17   18 1    
    35   17   86 1    
    36   17   87 1    
    37   18   19 1    
    38   18   37 1    
    39   18   88 1    
    40   19   20 am   BACKBONE|DICT|INTERRES
    41   19   89 1    
    42   20   21 2    
    43   20   22 1    
    44   22   23 1    
    45   22   24 1    
    46   22   90 1    
    47   23   91 1    
    48   23   92 1    
    49   23   93 1    
    50   24   25 am   BACKBONE|DICT|INTERRES
    51   24   94 1    
    52   25   26 2    
    53   25   27 1    
    54   27   28 1    
    55   27   29 1    
    56   27   95 1    
    57   28   96 1    
    58   28   97 1    
    59   28   98 1    
    60   29   30 am   BACKBONE|DICT|INTERRES
    61   29   99 1    
    62   30   31 2    
    63   30   32 1    
    64   32   33 1    
    65   32   34 1    
    66   32  100 1    
    67   33  101 1    
    68   33  102 1    
    69   33  103 1    
    70   34   35 am   BACKBONE|DICT|INTERRES
    71   34  104 1    
    72   35   36 2    
    73   37   38 2    
    74   37   39 am   BACKBONE|DICT|INTERRES
    75   39   40 1    
    76   39  105 1    
    77   40   41 1    
    78   40   42 1    
    79   40  106 1    
    80   41  107 1    
    81   41  108 1    
    82   41  109 1    
    83   42   43 2    
    84   42   44 am   BACKBONE|DICT|INTERRES
    85   44   45 1    
    86   44  110 1    
    87   45   46 1    
    88   45   47 1    
    89   45  111 1    
    90   46  112 1    
    91   46  113 1    
    92   46  114 1    
    93   47   48 2    
    94   47   49 am   BACKBONE|DICT|INTERRES
    95   49   50 1    
    96   49  115 1    
    97   50   51 1    
    98   50   52 1    
    99   50  116 1    
   100   51  117 1    
   101   51  118 1    
   102   51  119 1    
   103   52   53 2    
   104   52   54 am   BACKBONE|DICT|INTERRES
   105   54   55 1    
   106   54  120 1    
   107   55   56 1    
   108   55   57 1    
   109   55  121 1    
   110   56  122 1    
   111   56  123 1    
   112   56  124 1    
   113   57   58 2    
   114   57   59 am   BACKBONE|DICT|INTERRES
   115   59   60 1    
   116   59  125 1    
   117   60   61 1    
   118   60   62 1    
   119   60  126 1    
   120   61  127 1    
   121   61  128 1    
   122   61  129 1    
   123   62   63 2    
   124   62   64 am   BACKBONE|DICT|INTERRES
   125   64   65 1    
   126   64  130 1    
   127   65   66 1    
   128   65   69 1    
   129   65  131 1    
   130   66   67 am   BACKBONE|DICT|INTERRES
   131   66   68 2    
   132   67  132 1    
   133   67  133 1    
   134   69   70 1    
   135   69  134 1    
   136   69  135 1    
   137   70   71 1    
   138   71  136 1    
   139   71  137 1    
@<TRIPOS>SUBSTRUCTURE
     1 UNK         1 GROUP             0       ****    0 ROOT    
