@<TRIPOS>MOLECULE
3R137
137   139    1
SMALL
USER_CHARGES


@<TRIPOS>ATOM
      1 CA         27.5620   -6.3388   -0.4077 C.3       0 UNK        -0.2020 
      2 C          27.2294   -5.0192   -1.0868 C.2       0 UNK         0.4855 
      3 O          27.4004   -4.9029   -2.2982 O.2       0 UNK        -0.5197 
      4 N          26.7522   -4.0341   -0.3115 N.am      1 UNK        -0.4892 
      5 CA         26.3971   -2.6634   -0.7251 C.3       1 UNK         0.0835 
      6 C6         27.6163   -1.7490   -1.0672 C.3       12 UNK        -0.0855 
      7 S7         29.0927   -1.9972   -0.0150 S.3       12 UNK        -0.2931 
      8 C8         30.3958   -1.1223   -0.9606 C.3       12 UNK         0.0378 
      9 C9         30.8520   -1.7538   -2.2835 C.ar      12 UNK        -0.0802 
     10 C10        31.9104   -1.1497   -2.9714 C.ar      12 UNK        -0.0944 
     11 C11        32.3601   -1.6533   -4.1969 C.ar      12 UNK        -0.0787 
     12 C12        31.7173   -2.7640   -4.7559 C.ar      12 UNK        -0.0862 
     13 C13        30.6515   -3.3753   -4.0915 C.ar      12 UNK        -0.0733 
     14 C14        30.2558   -2.8917   -2.8418 C.ar      12 UNK        -0.0832 
     15 C15        29.9322   -4.5685   -4.7100 C.3       12 UNK         0.0240 
     16 S16        28.7497   -4.0993   -6.0230 S.3       12 UNK        -0.2522 
     17 C17        27.5523   -3.0028   -5.1703 C.3       12 UNK        -0.0967 
     18 CA         27.1958   -1.7182   -5.9650 C.3       5 UNK         0.0660 
     19 N          26.1227   -0.9316   -5.3264 N.am      5 UNK        -0.4015 
     20 C          25.5754    0.1729   -5.8626 C.2       4 UNK         0.4946 
     21 O          25.8663    0.5845   -6.9890 O.2       4 UNK        -0.5353 
     22 CA         24.5973    0.9873   -4.9970 C.3       4 UNK         0.0277 
     23 CB         23.9982    2.1914   -5.7594 C.3       4 UNK        -0.1981 
     24 N          23.5290    0.1584   -4.4379 N.am      4 UNK        -0.4209 
     25 C          22.7623    0.5129   -3.3969 C.2       3 UNK         0.4942 
     26 O          22.9050    1.5639   -2.7701 O.2       3 UNK        -0.5208 
     27 CA         21.6479   -0.4550   -2.9612 C.3       3 UNK         0.0250 
     28 CB         20.4909   -0.4969   -3.9807 C.3       3 UNK        -0.1990 
     29 N          22.1466   -1.7913   -2.6199 N.am      3 UNK        -0.4232 
     30 C          22.6727   -2.7127   -3.4368 C.2       2 UNK         0.4993 
     31 O          22.7307   -2.5995   -4.6639 O.2       2 UNK        -0.5286 
     32 CA         23.3171   -3.9212   -2.7328 C.3       2 UNK         0.0209 
     33 CB         23.9169   -4.9336   -3.7286 C.3       2 UNK        -0.1931 
     34 N          24.3334   -3.5502   -1.7316 N.am      2 UNK        -0.4546 
     35 C          25.3332   -2.6564   -1.8509 C.2       1 UNK         0.5154 
     36 O          25.4623   -1.8848   -2.8041 O.2       1 UNK        -0.5181 
     37 C          28.4421   -0.8556   -6.2660 C.2       5 UNK         0.5014 
     38 O          29.0093   -0.9744   -7.3517 O.2       5 UNK        -0.5248 
     39 N          28.7899    0.0501   -5.3390 N.am      6 UNK        -0.4434 
     40 CA         29.8841    1.0140   -5.4771 C.3       6 UNK         0.0363 
     41 CB         30.0017    1.8343   -4.1836 C.3       6 UNK        -0.1936 
     42 C          29.7480    1.9474   -6.6942 C.2       6 UNK         0.5081 
     43 O          30.7627    2.3073   -7.2933 O.2       6 UNK        -0.5248 
     44 N          28.5085    2.3143   -7.0477 N.am      7 UNK        -0.4718 
     45 CA         28.2056    3.1078   -8.2377 C.3       7 UNK         0.0273 
     46 CB         26.8809    3.8623   -8.0456 C.3       7 UNK        -0.1935 
     47 C          28.1486    2.2237   -9.4899 C.2       7 UNK         0.5018 
     48 O          28.7354    2.5903  -10.5073 O.2       7 UNK        -0.5186 
     49 N          27.4645    1.0734   -9.3903 N.am      8 UNK        -0.4240 
     50 CA         27.2666    0.1171  -10.4844 C.3       8 UNK         0.0235 
     51 CB         26.3040   -0.9923  -10.0327 C.3       8 UNK        -0.2000 
     52 C          28.5758   -0.4855  -11.0211 C.2       8 UNK         0.4941 
     53 O          28.7424   -0.5770  -12.2380 O.2       8 UNK        -0.5273 
     54 N          29.4863   -0.8600  -10.1130 N.am      9 UNK        -0.4262 
     55 CA         30.8214   -1.3680  -10.4374 C.3       9 UNK         0.0264 
     56 CB         31.2634   -2.3471   -9.3370 C.3       9 UNK        -0.1955 
     57 C          31.8620   -0.2492  -10.6451 C.2       9 UNK         0.5031 
     58 O          32.9836   -0.5596  -11.0494 O.2       9 UNK        -0.5390 
     59 N          31.4800    1.0130  -10.3860 N.am      10 UNK        -0.4204 
     60 CA         32.2759    2.2412  -10.5107 C.3       10 UNK         0.0237 
     61 CB         32.5502    2.5597  -11.9958 C.3       10 UNK        -0.1985 
     62 C          33.5548    2.2027   -9.6526 C.2       10 UNK         0.4970 
     63 O          34.6622    2.3427  -10.1769 O.2       10 UNK        -0.4914 
     64 N          33.3656    1.9926   -8.3478 N.am      11 UNK        -0.4285 
     65 CA         34.4269    1.8080   -7.3471 C.3       11 UNK         0.1007 
     66 C          34.2025    2.6012   -6.0293 C.2       11 UNK         0.5703 
     67 N          33.0763    3.2764   -5.8352 N.am      11 UNK        -0.7361 
     68 O          35.0856    2.6316   -5.1755 O.2       11 UNK        -0.4986 
     69 C69        34.7278    0.3037   -7.1044 C.3       12 UNK        -0.0947 
     70 S70        33.2485   -0.6639   -6.6500 S.3       12 UNK        -0.2240 
     71 C71        33.5550   -1.0049   -4.8900 C.3       12 UNK         0.0194 
     72 H72        28.6153   -6.5774   -0.5521 H         1 UNK         0.0906 
     73 H73        27.3648   -6.3095    0.6637 H         1 UNK         0.0906 
     74 H74        26.9679   -7.1429   -0.8411 H         1 UNK         0.0906 
     75 H75        26.6470   -4.2129    0.6779 H         1 UNK         0.3140 
     76 H76        25.9051   -2.2185    0.1414 H         1 UNK         0.1085 
     77 H77        27.9099   -1.8731   -2.1061 H         1 UNK         0.0836 
     78 H78        27.3183   -0.7023   -0.9841 H         1 UNK         0.0836 
     79 H79        30.0530   -0.1054   -1.1557 H         1 UNK         0.0731 
     80 H80        31.2660   -1.0299   -0.3090 H         1 UNK         0.0731 
     81 H81        32.3926   -0.2809   -2.5438 H         1 UNK         0.1312 
     82 H82        32.0424   -3.1513   -5.7119 H         1 UNK         0.1406 
     83 H83        29.4610   -3.4041   -2.3232 H         1 UNK         0.1631 
     84 H84        30.6705   -5.2487   -5.1367 H         1 UNK         0.0717 
     85 H85        29.4073   -5.1419   -3.9458 H         1 UNK         0.0717 
     86 H86        26.6500   -3.5864   -4.9958 H         1 UNK         0.0934 
     87 H87        27.9220   -2.7447   -4.1816 H         1 UNK         0.0934 
     88 H88        26.7983   -2.0404   -6.9286 H         1 UNK         0.0739 
     89 H89        25.8317   -1.2309   -4.3938 H         1 UNK         0.3093 
     90 H90        25.1887    1.3765   -4.1655 H         1 UNK         0.0818 
     91 H91        23.3294    2.7820   -5.1342 H         1 UNK         0.0819 
     92 H92        24.7833    2.8672   -6.0956 H         1 UNK         0.0819 
     93 H93        23.4374    1.8707   -6.6381 H         1 UNK         0.0819 
     94 H94        23.3779   -0.7590   -4.8523 H         1 UNK         0.3041 
     95 H95        21.2365   -0.0565   -2.0322 H         1 UNK         0.0784 
     96 H96        20.0678    0.4982   -4.1242 H         1 UNK         0.0793 
     97 H97        20.8118   -0.8519   -4.9602 H         1 UNK         0.0793 
     98 H98        19.6846   -1.1451   -3.6376 H         1 UNK         0.0793 
     99 H99        22.2004   -1.9797   -1.6281 H         1 UNK         0.3024 
    100 H100       22.5121   -4.4275   -2.1969 H         1 UNK         0.1171 
    101 H101       24.3313   -5.8007   -3.2142 H         1 UNK         0.0786 
    102 H102       23.1586   -5.2981   -4.4226 H         1 UNK         0.0786 
    103 H103       24.7130   -4.4876   -4.3219 H         1 UNK         0.0786 
    104 H104       24.3358   -4.1171   -0.8948 H         1 UNK         0.2977 
    105 H105       28.2631    0.0819   -4.4795 H         1 UNK         0.3127 
    106 H106       30.8030    0.4422   -5.6053 H         1 UNK         0.0770 
    107 H107       29.1031    2.4227   -3.9940 H         1 UNK         0.0814 
    108 H108       30.8403    2.5288   -4.2366 H         1 UNK         0.0814 
    109 H109       30.1722    1.1932   -3.3197 H         1 UNK         0.0814 
    110 H110       27.7226    1.9253   -6.5453 H         1 UNK         0.2983 
    111 H111       28.9957    3.8490   -8.3811 H         1 UNK         0.0947 
    112 H112       26.7029    4.5455   -8.8771 H         1 UNK         0.0806 
    113 H113       26.8878    4.4577   -7.1325 H         1 UNK         0.0806 
    114 H114       26.0302    3.1825   -8.0020 H         1 UNK         0.0806 
    115 H115       26.9981    0.8607   -8.5112 H         1 UNK         0.3000 
    116 H116       26.7949    0.6606  -11.3057 H         1 UNK         0.0850 
    117 H117       26.0844   -1.6761  -10.8536 H         1 UNK         0.0810 
    118 H118       25.3548   -0.5807   -9.6886 H         1 UNK         0.0810 
    119 H119       26.7266   -1.5835   -9.2207 H         1 UNK         0.0810 
    120 H120       29.2580   -0.7933   -9.1194 H         1 UNK         0.3040 
    121 H121       30.7710   -1.9279  -11.3737 H         1 UNK         0.0766 
    122 H122       30.5855   -3.1980   -9.2692 H         1 UNK         0.0812 
    123 H123       31.2860   -1.8672   -8.3598 H         1 UNK         0.0812 
    124 H124       32.2619   -2.7401   -9.5321 H         1 UNK         0.0812 
    125 H125       30.5262    1.1522  -10.0799 H         1 UNK         0.3205 
    126 H126       31.6593    3.0477  -10.1103 H         1 UNK         0.0754 
    127 H127       33.0671    3.5142  -12.1012 H         1 UNK         0.0769 
    128 H128       31.6210    2.6301  -12.5615 H         1 UNK         0.0769 
    129 H129       33.1726    1.7981  -12.4669 H         1 UNK         0.0769 
    130 H130       32.4137    1.9225   -7.9945 H         1 UNK         0.2981 
    131 H131       35.3420    2.2475   -7.7477 H         1 UNK         0.0541 
    132 H132       32.3101    3.2088   -6.4941 H         1 UNK         0.3459 
    133 H133       32.9660    3.8059   -4.9860 H         1 UNK         0.3459 
    134 H134       35.5084    0.1730   -6.3529 H         1 UNK         0.0612 
    135 H135       35.1290   -0.1323   -8.0204 H         1 UNK         0.0612 
    136 H136       33.8194   -0.0684   -4.3964 H         1 UNK         0.0624 
    137 H137       34.4192   -1.6638   -4.7990 H         1 UNK         0.0624 
@<TRIPOS>BOND
     1    1    2 1    
     2    1   72 1    
     3    1   73 1    
     4    1   74 1    
     5    2    3 2    
     6    2    4 am   BACKBONE|DICT|INTERRES
     7    4    5 1    
     8    4   75 1    
     9    5    6 1    
    10    5   35 1    
    11    5   76 1    
    12    6    7 1    
    13    6   77 1    
    14    6   78 1    
    15    7    8 1    
    16    8    9 1    
    17    8   79 1    
    18    8   80 1    
    19    9   10 ar   
    20    9   14 ar   
    21   10   11 ar   
    22   10   81 1    
    23   11   12 ar   
    24   11   71 1    
    25   12   13 ar   
    26   12   82 1    
    27   13   14 ar   
    28   13   15 1    
    29   14   83 1    
    30   15   16 1    
    31   15   84 1    
    32   15   85 1    
    33   16   17 1    
    34   17   18 1    
    35   17   86 1    
    36   17   87 1    
    37   18   19 1    
    38   18   37 1    
    39   18   88 1    
    40   19   20 am   BACKBONE|DICT|INTERRES
    41   19   89 1    
    42   20   21 2    
    43   20   22 1    
    44   22   23 1    
    45   22   24 1    
    46   22   90 1    
    47   23   91 1    
    48   23   92 1    
    49   23   93 1    
    50   24   25 am   BACKBONE|DICT|INTERRES
    51   24   94 1    
    52   25   26 2    
    53   25   27 1    
    54   27   28 1    
    55   27   29 1    
    56   27   95 1    
    57   28   96 1    
    58   28   97 1    
    59   28   98 1    
    60   29   30 am   BACKBONE|DICT|INTERRES
    61   29   99 1    
    62   30   31 2    
    63   30   32 1    
    64   32   33 1    
    65   32   34 1    
    66   32  100 1    
    67   33  101 1    
    68   33  102 1    
    69   33  103 1    
    70   34   35 am   BACKBONE|DICT|INTERRES
    71   34  104 1    
    72   35   36 2    
    73   37   38 2    
    74   37   39 am   BACKBONE|DICT|INTERRES
    75   39   40 1    
    76   39  105 1    
    77   40   41 1    
    78   40   42 1    
    79   40  106 1    
    80   41  107 1    
    81   41  108 1    
    82   41  109 1    
    83   42   43 2    
    84   42   44 am   BACKBONE|DICT|INTERRES
    85   44   45 1    
    86   44  110 1    
    87   45   46 1    
    88   45   47 1    
    89   45  111 1    
    90   46  112 1    
    91   46  113 1    
    92   46  114 1    
    93   47   48 2    
    94   47   49 am   BACKBONE|DICT|INTERRES
    95   49   50 1    
    96   49  115 1    
    97   50   51 1    
    98   50   52 1    
    99   50  116 1    
   100   51  117 1    
   101   51  118 1    
   102   51  119 1    
   103   52   53 2    
   104   52   54 am   BACKBONE|DICT|INTERRES
   105   54   55 1    
   106   54  120 1    
   107   55   56 1    
   108   55   57 1    
   109   55  121 1    
   110   56  122 1    
   111   56  123 1    
   112   56  124 1    
   113   57   58 2    
   114   57   59 am   BACKBONE|DICT|INTERRES
   115   59   60 1    
   116   59  125 1    
   117   60   61 1    
   118   60   62 1    
   119   60  126 1    
   120   61  127 1    
   121   61  128 1    
   122   61  129 1    
   123   62   63 2    
   124   62   64 am   BACKBONE|DICT|INTERRES
   125   64   65 1    
   126   64  130 1    
   127   65   66 1    
   128   65   69 1    
   129   65  131 1    
   130   66   67 am   BACKBONE|DICT|INTERRES
   131   66   68 2    
   132   67  132 1    
   133   67  133 1    
   134   69   70 1    
   135   69  134 1    
   136   69  135 1    
   137   70   71 1    
   138   71  136 1    
   139   71  137 1    
@<TRIPOS>SUBSTRUCTURE
     1 UNK         1 GROUP             0       ****    0 ROOT    
