@<TRIPOS>MOLECULE
3R137
137   139    1
SMALL
USER_CHARGES


@<TRIPOS>ATOM
      1 CA         29.2517   -6.0276   -4.7121 C.3       0 UNK        -0.2020 
      2 C          28.3598   -5.8633   -3.4914 C.2       0 UNK         0.4855 
      3 O          27.8166   -6.8485   -2.9913 O.2       0 UNK        -0.5197 
      4 N          28.1980   -4.6267   -3.0141 N.am      1 UNK        -0.4892 
      5 CA         27.3343   -4.2493   -1.8989 C.3       1 UNK         0.0835 
      6 C6         27.9832   -4.5433   -0.5151 C.3       12 UNK        -0.0855 
      7 S7         29.2079   -3.3445    0.1227 S.3       12 UNK        -0.2931 
      8 C8         30.7282   -3.7511   -0.8105 C.3       12 UNK         0.0378 
      9 C9         30.8956   -2.9200   -2.0813 C.ar      12 UNK        -0.0802 
     10 C10        31.3827   -3.5096   -3.2529 C.ar      12 UNK        -0.0944 
     11 C11        31.5285   -2.7534   -4.4208 C.ar      12 UNK        -0.0787 
     12 C12        31.1729   -1.4012   -4.4169 C.ar      12 UNK        -0.0862 
     13 C13        30.6913   -0.7948   -3.2545 C.ar      12 UNK        -0.0733 
     14 C14        30.5861   -1.5558   -2.0864 C.ar      12 UNK        -0.0832 
     15 C15        30.2805    0.6746   -3.2649 C.3       12 UNK         0.0240 
     16 S16        28.6613    0.9211   -2.4596 S.3       12 UNK        -0.2522 
     17 C17        27.8115    2.1555   -3.4956 C.3       12 UNK        -0.0967 
     18 CA         27.6328    1.7870   -4.9941 C.3       5 UNK         0.0660 
     19 N          27.3516    0.3675   -5.2404 N.am      5 UNK        -0.4015 
     20 C          27.2905   -0.1897   -6.4604 C.2       4 UNK         0.4946 
     21 O          27.5005    0.4244   -7.5055 O.2       4 UNK        -0.5353 
     22 CA         26.8417   -1.6545   -6.5402 C.3       4 UNK         0.0277 
     23 CB         28.0142   -2.6138   -6.2793 C.3       4 UNK        -0.1981 
     24 N          25.7405   -1.9185   -5.6122 N.am      4 UNK        -0.4209 
     25 C          24.4917   -1.4588   -5.7916 C.2       3 UNK         0.4942 
     26 O          24.1351   -0.8309   -6.7876 O.2       3 UNK        -0.5208 
     27 CA         23.4710   -1.7045   -4.6661 C.3       3 UNK         0.0250 
     28 CB         22.7200   -3.0243   -4.9019 C.3       3 UNK        -0.1990 
     29 N          24.0684   -1.7166   -3.3300 N.am      3 UNK        -0.4232 
     30 C          24.6742   -0.6710   -2.7489 C.2       2 UNK         0.4993 
     31 O          24.7420    0.4502   -3.2556 O.2       2 UNK        -0.5286 
     32 CA         25.3737   -0.9471   -1.4038 C.3       2 UNK         0.0209 
     33 CB         24.4087   -0.6998   -0.2338 C.3       2 UNK        -0.1931 
     34 N          25.9468   -2.2991   -1.2935 N.am      2 UNK        -0.4546 
     35 C          26.8684   -2.7981   -2.1309 C.2       1 UNK         0.5154 
     36 O          27.3016   -2.1693   -3.1010 O.2       1 UNK        -0.5181 
     37 C          26.5615    2.6913   -5.6353 C.2       5 UNK         0.5014 
     38 O          26.9118    3.6588   -6.3114 O.2       5 UNK        -0.5248 
     39 N          25.2810    2.3332   -5.4483 N.am      6 UNK        -0.4434 
     40 CA         24.1240    3.0082   -6.0464 C.3       6 UNK         0.0363 
     41 CB         22.8296    2.4015   -5.4831 C.3       6 UNK        -0.1936 
     42 C          24.1167    2.9660   -7.5863 C.2       6 UNK         0.5081 
     43 O          23.7188    3.9461   -8.2159 O.2       6 UNK        -0.5248 
     44 N          24.5851    1.8522   -8.1649 N.am      7 UNK        -0.4718 
     45 CA         24.7713    1.6675   -9.6077 C.3       7 UNK         0.0273 
     46 CB         24.7897    0.1599   -9.9129 C.3       7 UNK        -0.1935 
     47 C          26.0425    2.3425  -10.1633 C.2       7 UNK         0.5018 
     48 O          26.2332    2.3276  -11.3801 O.2       7 UNK        -0.5186 
     49 N          26.8914    2.8940   -9.2815 N.am      8 UNK        -0.4240 
     50 CA         28.2090    3.4849   -9.5481 C.3       8 UNK         0.0235 
     51 CB         28.0956    4.7312  -10.4519 C.3       8 UNK        -0.2000 
     52 C          29.2483    2.4636  -10.0552 C.2       8 UNK         0.4941 
     53 O          30.1950    2.8430  -10.7478 O.2       8 UNK        -0.5273 
     54 N          29.0826    1.1908   -9.6753 N.am      9 UNK        -0.4262 
     55 CA         30.0189    0.1020   -9.9292 C.3       9 UNK         0.0264 
     56 CB         29.2241   -1.1967  -10.1598 C.3       9 UNK        -0.1955 
     57 C          30.9573    0.0097   -8.7199 C.2       9 UNK         0.5031 
     58 O          30.7259   -0.7957   -7.8202 O.2       9 UNK        -0.5390 
     59 N          31.9710    0.8837   -8.6949 N.am      10 UNK        -0.4204 
     60 CA         32.8906    1.0779   -7.5679 C.3       10 UNK         0.0237 
     61 CB         33.6970    2.3659   -7.8063 C.3       10 UNK        -0.1985 
     62 C          33.8368   -0.1031   -7.2696 C.2       10 UNK         0.4970 
     63 O          34.4144   -0.1202   -6.1823 O.2       10 UNK        -0.4914 
     64 N          33.9861   -1.0333   -8.2259 N.am      11 UNK        -0.4285 
     65 CA         34.8569   -2.2234   -8.2011 C.3       11 UNK         0.1007 
     66 C          36.3409   -1.9398   -7.8080 C.2       11 UNK         0.5703 
     67 N          37.0277   -2.8599   -7.1429 N.am      11 UNK        -0.7361 
     68 O          36.9015   -0.9072   -8.1719 O.2       11 UNK        -0.4986 
     69 C69        34.1907   -3.4716   -7.5394 C.3       12 UNK        -0.0947 
     70 S70        33.8775   -3.3445   -5.7439 S.3       12 UNK        -0.2240 
     71 C71        32.0607   -3.3894   -5.6950 C.3       12 UNK         0.0194 
     72 H72        30.1831   -6.5200   -4.4346 H         1 UNK         0.0906 
     73 H73        28.7527   -6.6385   -5.4638 H         1 UNK         0.0906 
     74 H74        29.4921   -5.0679   -5.1669 H         1 UNK         0.0906 
     75 H75        28.6302   -3.8266   -3.4625 H         1 UNK         0.3140 
     76 H76        26.4303   -4.8580   -1.9753 H         1 UNK         0.1085 
     77 H77        28.4326   -5.5376   -0.5128 H         1 UNK         0.0836 
     78 H78        27.1918   -4.5983    0.2339 H         1 UNK         0.0836 
     79 H79        30.7389   -4.8179   -1.0390 H         1 UNK         0.0731 
     80 H80        31.5890   -3.5646   -0.1673 H         1 UNK         0.0731 
     81 H81        31.6514   -4.5571   -3.2581 H         1 UNK         0.1312 
     82 H82        31.2730   -0.8219   -5.3239 H         1 UNK         0.1406 
     83 H83        30.2256   -1.0866   -1.1817 H         1 UNK         0.1631 
     84 H84        30.2544    1.0494   -4.2876 H         1 UNK         0.0717 
     85 H85        31.0334    1.2623   -2.7386 H         1 UNK         0.0717 
     86 H86        26.8411    2.3168   -3.0207 H         1 UNK         0.0934 
     87 H87        28.3430    3.1048   -3.4068 H         1 UNK         0.0934 
     88 H88        28.5715    2.0060   -5.5066 H         1 UNK         0.0739 
     89 H89        27.1931   -0.2112   -4.4243 H         1 UNK         0.3093 
     90 H90        26.4802   -1.8398   -7.5539 H         1 UNK         0.0818 
     91 H91        28.5089   -2.4105   -5.3304 H         1 UNK         0.0819 
     92 H92        27.6861   -3.6529   -6.2783 H         1 UNK         0.0819 
     93 H93        28.7728   -2.5141   -7.0561 H         1 UNK         0.0819 
     94 H94        25.9888   -2.3478   -4.7293 H         1 UNK         0.3041 
     95 H95        22.7460   -0.8887   -4.6964 H         1 UNK         0.0784 
     96 H96        22.2435   -3.0307   -5.8834 H         1 UNK         0.0793 
     97 H97        23.3890   -3.8848   -4.8591 H         1 UNK         0.0793 
     98 H98        21.9332   -3.1717   -4.1618 H         1 UNK         0.0793 
     99 H99        24.0571   -2.5949   -2.8327 H         1 UNK         0.3024 
    100 H100       26.1974   -0.2354   -1.3220 H         1 UNK         0.1171 
    101 H101       23.5765   -1.4047   -0.2386 H         1 UNK         0.0786 
    102 H102       23.9859    0.3048   -0.2835 H         1 UNK         0.0786 
    103 H103       24.9186   -0.7865    0.7259 H         1 UNK         0.0786 
    104 H104       25.6331   -2.8630   -0.5165 H         1 UNK         0.2977 
    105 H105       25.0841    1.5522   -4.8259 H         1 UNK         0.3127 
    106 H106       24.1677    4.0573   -5.7467 H         1 UNK         0.0770 
    107 H107       22.7240    1.3522   -5.7592 H         1 UNK         0.0814 
    108 H108       21.9542    2.9283   -5.8650 H         1 UNK         0.0814 
    109 H109       22.7996    2.4665   -4.3952 H         1 UNK         0.0814 
    110 H110       24.8373    1.0668   -7.5748 H         1 UNK         0.2983 
    111 H111       23.9192    2.1103  -10.1279 H         1 UNK         0.0947 
    112 H112       24.8714   -0.0243  -10.9849 H         1 UNK         0.0806 
    113 H113       23.8757   -0.3257   -9.5706 H         1 UNK         0.0806 
    114 H114       25.6328   -0.3368   -9.4317 H         1 UNK         0.0806 
    115 H115       26.6419    2.8399   -8.3004 H         1 UNK         0.3000 
    116 H116       28.5797    3.8208   -8.5786 H         1 UNK         0.0850 
    117 H117       29.0481    5.2594  -10.5098 H         1 UNK         0.0810 
    118 H118       27.3593    5.4357  -10.0652 H         1 UNK         0.0810 
    119 H119       27.8094    4.4699  -11.4709 H         1 UNK         0.0810 
    120 H120       28.3440    0.9782   -9.0038 H         1 UNK         0.3040 
    121 H121       30.6117    0.3022  -10.8242 H         1 UNK         0.0766 
    122 H122       28.5918   -1.1192  -11.0443 H         1 UNK         0.0812 
    123 H123       28.5804   -1.4356   -9.3127 H         1 UNK         0.0812 
    124 H124       29.8950   -2.0433  -10.3100 H         1 UNK         0.0812 
    125 H125       32.0580    1.5303   -9.4680 H         1 UNK         0.3205 
    126 H126       32.2809    1.2230   -6.6733 H         1 UNK         0.0754 
    127 H127       34.3159    2.2936   -8.7016 H         1 UNK         0.0769 
    128 H128       34.3625    2.5730   -6.9668 H         1 UNK         0.0769 
    129 H129       33.0425    3.2308   -7.9172 H         1 UNK         0.0769 
    130 H130       33.4784   -0.8925   -9.0855 H         1 UNK         0.2981 
    131 H131       34.9456   -2.4834   -9.2564 H         1 UNK         0.0541 
    132 H132       36.5788   -3.7049   -6.8266 H         1 UNK         0.3459 
    133 H133       37.9934   -2.6844   -6.9143 H         1 UNK         0.3459 
    134 H134       33.2505   -3.6824   -8.0508 H         1 UNK         0.0612 
    135 H135       34.8009   -4.3595   -7.7107 H         1 UNK         0.0612 
    136 H136       31.7294   -4.4250   -5.7754 H         1 UNK         0.0624 
    137 H137       31.6543   -2.8677   -6.5613 H         1 UNK         0.0624 
@<TRIPOS>BOND
     1    1    2 1    
     2    1   72 1    
     3    1   73 1    
     4    1   74 1    
     5    2    3 2    
     6    2    4 am   BACKBONE|DICT|INTERRES
     7    4    5 1    
     8    4   75 1    
     9    5    6 1    
    10    5   35 1    
    11    5   76 1    
    12    6    7 1    
    13    6   77 1    
    14    6   78 1    
    15    7    8 1    
    16    8    9 1    
    17    8   79 1    
    18    8   80 1    
    19    9   10 ar   
    20    9   14 ar   
    21   10   11 ar   
    22   10   81 1    
    23   11   12 ar   
    24   11   71 1    
    25   12   13 ar   
    26   12   82 1    
    27   13   14 ar   
    28   13   15 1    
    29   14   83 1    
    30   15   16 1    
    31   15   84 1    
    32   15   85 1    
    33   16   17 1    
    34   17   18 1    
    35   17   86 1    
    36   17   87 1    
    37   18   19 1    
    38   18   37 1    
    39   18   88 1    
    40   19   20 am   BACKBONE|DICT|INTERRES
    41   19   89 1    
    42   20   21 2    
    43   20   22 1    
    44   22   23 1    
    45   22   24 1    
    46   22   90 1    
    47   23   91 1    
    48   23   92 1    
    49   23   93 1    
    50   24   25 am   BACKBONE|DICT|INTERRES
    51   24   94 1    
    52   25   26 2    
    53   25   27 1    
    54   27   28 1    
    55   27   29 1    
    56   27   95 1    
    57   28   96 1    
    58   28   97 1    
    59   28   98 1    
    60   29   30 am   BACKBONE|DICT|INTERRES
    61   29   99 1    
    62   30   31 2    
    63   30   32 1    
    64   32   33 1    
    65   32   34 1    
    66   32  100 1    
    67   33  101 1    
    68   33  102 1    
    69   33  103 1    
    70   34   35 am   BACKBONE|DICT|INTERRES
    71   34  104 1    
    72   35   36 2    
    73   37   38 2    
    74   37   39 am   BACKBONE|DICT|INTERRES
    75   39   40 1    
    76   39  105 1    
    77   40   41 1    
    78   40   42 1    
    79   40  106 1    
    80   41  107 1    
    81   41  108 1    
    82   41  109 1    
    83   42   43 2    
    84   42   44 am   BACKBONE|DICT|INTERRES
    85   44   45 1    
    86   44  110 1    
    87   45   46 1    
    88   45   47 1    
    89   45  111 1    
    90   46  112 1    
    91   46  113 1    
    92   46  114 1    
    93   47   48 2    
    94   47   49 am   BACKBONE|DICT|INTERRES
    95   49   50 1    
    96   49  115 1    
    97   50   51 1    
    98   50   52 1    
    99   50  116 1    
   100   51  117 1    
   101   51  118 1    
   102   51  119 1    
   103   52   53 2    
   104   52   54 am   BACKBONE|DICT|INTERRES
   105   54   55 1    
   106   54  120 1    
   107   55   56 1    
   108   55   57 1    
   109   55  121 1    
   110   56  122 1    
   111   56  123 1    
   112   56  124 1    
   113   57   58 2    
   114   57   59 am   BACKBONE|DICT|INTERRES
   115   59   60 1    
   116   59  125 1    
   117   60   61 1    
   118   60   62 1    
   119   60  126 1    
   120   61  127 1    
   121   61  128 1    
   122   61  129 1    
   123   62   63 2    
   124   62   64 am   BACKBONE|DICT|INTERRES
   125   64   65 1    
   126   64  130 1    
   127   65   66 1    
   128   65   69 1    
   129   65  131 1    
   130   66   67 am   BACKBONE|DICT|INTERRES
   131   66   68 2    
   132   67  132 1    
   133   67  133 1    
   134   69   70 1    
   135   69  134 1    
   136   69  135 1    
   137   70   71 1    
   138   71  136 1    
   139   71  137 1    
@<TRIPOS>SUBSTRUCTURE
     1 UNK         1 GROUP             0       ****    0 ROOT    
