@<TRIPOS>MOLECULE
3R137
137   139    1
SMALL
USER_CHARGES


@<TRIPOS>ATOM
      1 CA         25.7133   -5.7592    1.3581 C.3       0 UNK        -0.2020 
      2 C          26.3222   -4.4876    0.7874 C.2       0 UNK         0.4855 
      3 O          26.1611   -3.4147    1.3698 O.2       0 UNK        -0.5197 
      4 N          27.0078   -4.5902   -0.3582 N.am      1 UNK        -0.4892 
      5 CA         27.6957   -3.4955   -1.0592 C.3       1 UNK         0.0835 
      6 C6         28.8768   -4.0393   -1.9132 C.3       12 UNK        -0.0855 
      7 S7         30.3684   -4.2317   -0.8712 S.3       12 UNK        -0.2931 
      8 C8         31.7507   -3.6996   -1.9490 C.3       12 UNK         0.0378 
      9 C9         31.4851   -2.4313   -2.7579 C.ar      12 UNK        -0.0802 
     10 C10        31.7695   -2.4203   -4.1264 C.ar      12 UNK        -0.0944 
     11 C11        31.4806   -1.2979   -4.9127 C.ar      12 UNK        -0.0787 
     12 C12        30.9089   -0.1751   -4.3067 C.ar      12 UNK        -0.0862 
     13 C13        30.6302   -0.1645   -2.9380 C.ar      12 UNK        -0.0733 
     14 C14        30.9374   -1.2887   -2.1644 C.ar      12 UNK        -0.0832 
     15 C15        29.9724    1.0469   -2.2956 C.3       12 UNK         0.0240 
     16 S16        28.2146    0.7133   -1.9726 S.3       12 UNK        -0.2522 
     17 C17        27.3444    1.8877   -3.0634 C.3       12 UNK        -0.0967 
     18 CA         27.4486    1.6118   -4.5889 C.3       5 UNK         0.0660 
     19 N          27.2786    0.2047   -4.9634 N.am      5 UNK        -0.4015 
     20 C          27.4872   -0.2866   -6.1963 C.2       4 UNK         0.4946 
     21 O          27.9402    0.3702   -7.1372 O.2       4 UNK        -0.5353 
     22 CA         27.0815   -1.7482   -6.4358 C.3       4 UNK         0.0277 
     23 CB         28.2436   -2.6969   -6.1111 C.3       4 UNK        -0.1981 
     24 N          25.9053   -2.1226   -5.6498 N.am      4 UNK        -0.4209 
     25 C          24.6507   -1.7553   -5.9443 C.2       3 UNK         0.4942 
     26 O          24.3497   -1.0867   -6.9323 O.2       3 UNK        -0.5208 
     27 CA         23.5485   -2.1706   -4.9529 C.3       3 UNK         0.0250 
     28 CB         23.0703   -3.6017   -5.2442 C.3       3 UNK        -0.1990 
     29 N          23.9572   -2.0654   -3.5490 N.am      3 UNK        -0.4232 
     30 C          24.2975   -0.9174   -2.9481 C.2       2 UNK         0.4993 
     31 O          24.2795    0.1777   -3.5085 O.2       2 UNK        -0.5286 
     32 CA         24.7742   -0.9950   -1.4896 C.3       2 UNK         0.0209 
     33 CB         23.5691   -1.0105   -0.5357 C.3       2 UNK        -0.1931 
     34 N          25.6791   -2.0996   -1.1409 N.am      2 UNK        -0.4546 
     35 C          26.7182   -2.5833   -1.8386 C.2       1 UNK         0.5154 
     36 O          26.9275   -2.3194   -3.0226 O.2       1 UNK        -0.5181 
     37 C          26.4497    2.5042   -5.3545 C.2       5 UNK         0.5014 
     38 O          26.8606    3.4951   -5.9578 O.2       5 UNK        -0.5248 
     39 N          25.1637    2.1175   -5.3386 N.am      6 UNK        -0.4434 
     40 CA         24.0623    2.7966   -6.0278 C.3       6 UNK         0.0363 
     41 CB         22.7257    2.1649   -5.6076 C.3       6 UNK        -0.1936 
     42 C          24.2026    2.7873   -7.5584 C.2       6 UNK         0.5081 
     43 O          23.8827    3.7889   -8.1989 O.2       6 UNK        -0.5248 
     44 N          24.7045    1.6764   -8.1163 N.am      7 UNK        -0.4718 
     45 CA         25.0426    1.5429   -9.5372 C.3       7 UNK         0.0273 
     46 CB         25.2527    0.0563   -9.8677 C.3       7 UNK        -0.1935 
     47 C          26.2820    2.3566   -9.9561 C.2       7 UNK         0.5018 
     48 O          26.4792    2.5581  -11.1551 O.2       7 UNK        -0.5186 
     49 N          27.0919    2.7871   -8.9755 N.am      8 UNK        -0.4240 
     50 CA         28.3713    3.4901   -9.1100 C.3       8 UNK         0.0235 
     51 CB         28.1651    4.9063   -9.6887 C.3       8 UNK        -0.2000 
     52 C          29.4121    2.6590   -9.8830 C.2       8 UNK         0.4941 
     53 O          30.1144    3.1922  -10.7457 O.2       8 UNK        -0.5273 
     54 N          29.4768    1.3573   -9.5707 N.am      9 UNK        -0.4262 
     55 CA         30.4276    0.4156  -10.1617 C.3       9 UNK         0.0264 
     56 CB         29.9379   -1.0174   -9.8933 C.3       9 UNK        -0.1955 
     57 C          31.8528    0.6357   -9.6224 C.2       9 UNK         0.5031 
     58 O          32.0199    1.1575   -8.5173 O.2       9 UNK        -0.5390 
     59 N          32.8563    0.2264  -10.4097 N.am      10 UNK        -0.4204 
     60 CA         34.2718    0.3022  -10.0339 C.3       10 UNK         0.0237 
     61 CB         35.1487    0.2355  -11.2958 C.3       10 UNK        -0.1985 
     62 C          34.6702   -0.7961   -9.0340 C.2       10 UNK         0.4970 
     63 O          35.3834   -0.5072   -8.0730 O.2       10 UNK        -0.4914 
     64 N          34.1999   -2.0262   -9.2872 N.am      11 UNK        -0.4285 
     65 CA         34.4220   -3.2366   -8.4722 C.3       11 UNK         0.1007 
     66 C          35.9068   -3.7071   -8.3767 C.2       11 UNK         0.5703 
     67 N          36.7894   -3.2893   -9.2768 N.am      11 UNK        -0.7361 
     68 O          36.2630   -4.4899   -7.4985 O.2       11 UNK        -0.4986 
     69 C69        33.7137   -3.1770   -7.0874 C.3       12 UNK        -0.0947 
     70 S70        31.9234   -2.8628   -7.2477 S.3       12 UNK        -0.2240 
     71 C71        31.7571   -1.2456   -6.4145 C.3       12 UNK         0.0194 
     72 H72        25.9314   -6.6300    0.7401 H         1 UNK         0.0906 
     73 H73        26.1057   -5.9462    2.3574 H         1 UNK         0.0906 
     74 H74        24.6309   -5.6571    1.4309 H         1 UNK         0.0906 
     75 H75        27.0847   -5.4960   -0.7991 H         1 UNK         0.3140 
     76 H76        28.1178   -2.8277   -0.3039 H         1 UNK         0.1085 
     77 H77        29.1118   -3.3785   -2.7457 H         1 UNK         0.0836 
     78 H78        28.6272   -4.9966   -2.3731 H         1 UNK         0.0836 
     79 H79        31.9892   -4.5304   -2.6150 H         1 UNK         0.0731 
     80 H80        32.6356   -3.5420   -1.3312 H         1 UNK         0.0731 
     81 H81        32.2043   -3.3008   -4.5763 H         1 UNK         0.1312 
     82 H82        30.6702    0.6913   -4.9085 H         1 UNK         0.1406 
     83 H83        30.7101   -1.2893   -1.1070 H         1 UNK         0.1631 
     84 H84        30.0850    1.9326   -2.9225 H         1 UNK         0.0717 
     85 H85        30.4694    1.2746   -1.3516 H         1 UNK         0.0717 
     86 H86        26.3007    1.8777   -2.7433 H         1 UNK         0.0934 
     87 H87        27.7060    2.8936   -2.8415 H         1 UNK         0.0934 
     88 H88        28.4516    1.9003   -4.9091 H         1 UNK         0.0739 
     89 H89        26.9604   -0.4251   -4.2367 H         1 UNK         0.3093 
     90 H90        26.8382   -1.8619   -7.4941 H         1 UNK         0.0818 
     91 H91        28.6123   -2.5612   -5.0936 H         1 UNK         0.0819 
     92 H92        27.9551   -3.7411   -6.2297 H         1 UNK         0.0819 
     93 H93        29.0787   -2.5152   -6.7851 H         1 UNK         0.0819 
     94 H94        26.0889   -2.5636   -4.7530 H         1 UNK         0.3041 
     95 H95        22.7048   -1.4932   -5.1018 H         1 UNK         0.0784 
     96 H96        22.7428   -3.6994   -6.2803 H         1 UNK         0.0793 
     97 H97        23.8621   -4.3343   -5.0820 H         1 UNK         0.0793 
     98 H98        22.2248   -3.8742   -4.6122 H         1 UNK         0.0793 
     99 H99        24.0238   -2.9222   -3.0190 H         1 UNK         0.3024 
    100 H100       25.3326   -0.0763   -1.3014 H         1 UNK         0.1171 
    101 H101       23.0004   -1.9374   -0.6201 H         1 UNK         0.0786 
    102 H102       22.8868   -0.1866   -0.7509 H         1 UNK         0.0786 
    103 H103       23.8837   -0.9043    0.5028 H         1 UNK         0.0786 
    104 H104       25.6255   -2.4198   -0.1773 H         1 UNK         0.2977 
    105 H105       24.9034    1.3123   -4.7686 H         1 UNK         0.3127 
    106 H106       24.0645    3.8393   -5.7035 H         1 UNK         0.0770 
    107 H107       22.6794    1.1080   -5.8734 H         1 UNK         0.0814 
    108 H108       21.8864    2.6630   -6.0949 H         1 UNK         0.0814 
    109 H109       22.5704    2.2452   -4.5316 H         1 UNK         0.0814 
    110 H110       24.8639    0.8622   -7.5317 H         1 UNK         0.2983 
    111 H111       24.1987    1.9101  -10.1253 H         1 UNK         0.0947 
    112 H112       25.4744   -0.0830  -10.9267 H         1 UNK         0.0806 
    113 H113       24.3615   -0.5305   -9.6446 H         1 UNK         0.0806 
    114 H114       26.0841   -0.3661   -9.3025 H         1 UNK         0.0806 
    115 H115       26.8324    2.5557   -8.0243 H         1 UNK         0.3000 
    116 H116       28.7640    3.6010   -8.0980 H         1 UNK         0.0850 
    117 H117       29.0971    5.4724   -9.6751 H         1 UNK         0.0810 
    118 H118       27.4359    5.4687   -9.1054 H         1 UNK         0.0810 
    119 H119       27.8182    4.8765  -10.7220 H         1 UNK         0.0810 
    120 H120       28.9043    1.0123   -8.8048 H         1 UNK         0.3040 
    121 H121       30.4434    0.5768  -11.2418 H         1 UNK         0.0766 
    122 H122       28.9882   -1.2070  -10.3938 H         1 UNK         0.0812 
    123 H123       29.7895   -1.2023   -8.8303 H         1 UNK         0.0812 
    124 H124       30.6498   -1.7585  -10.2584 H         1 UNK         0.0812 
    125 H125       32.6398   -0.1749  -11.3112 H         1 UNK         0.3205 
    126 H126       34.4509    1.2671   -9.5538 H         1 UNK         0.0754 
    127 H127       36.2069    0.3028  -11.0386 H         1 UNK         0.0769 
    128 H128       34.9300    1.0617  -11.9727 H         1 UNK         0.0769 
    129 H129       35.0051   -0.6952  -11.8461 H         1 UNK         0.0769 
    130 H130       33.6329   -2.1617  -10.1100 H         1 UNK         0.2981 
    131 H131       33.9372   -4.0374   -9.0315 H         1 UNK         0.0541 
    132 H132       36.5124   -2.6586  -10.0112 H         1 UNK         0.3459 
    133 H133       37.7439   -3.6068   -9.2153 H         1 UNK         0.3459 
    134 H134       33.8228   -4.1262   -6.5605 H         1 UNK         0.0612 
    135 H135       34.1757   -2.4231   -6.4483 H         1 UNK         0.0612 
    136 H136       30.9326   -0.7170   -6.8928 H         1 UNK         0.0624 
    137 H137       32.6493   -0.6448   -6.5934 H         1 UNK         0.0624 
@<TRIPOS>BOND
     1    1    2 1    
     2    1   72 1    
     3    1   73 1    
     4    1   74 1    
     5    2    3 2    
     6    2    4 am   BACKBONE|DICT|INTERRES
     7    4    5 1    
     8    4   75 1    
     9    5    6 1    
    10    5   35 1    
    11    5   76 1    
    12    6    7 1    
    13    6   77 1    
    14    6   78 1    
    15    7    8 1    
    16    8    9 1    
    17    8   79 1    
    18    8   80 1    
    19    9   10 ar   
    20    9   14 ar   
    21   10   11 ar   
    22   10   81 1    
    23   11   12 ar   
    24   11   71 1    
    25   12   13 ar   
    26   12   82 1    
    27   13   14 ar   
    28   13   15 1    
    29   14   83 1    
    30   15   16 1    
    31   15   84 1    
    32   15   85 1    
    33   16   17 1    
    34   17   18 1    
    35   17   86 1    
    36   17   87 1    
    37   18   19 1    
    38   18   37 1    
    39   18   88 1    
    40   19   20 am   BACKBONE|DICT|INTERRES
    41   19   89 1    
    42   20   21 2    
    43   20   22 1    
    44   22   23 1    
    45   22   24 1    
    46   22   90 1    
    47   23   91 1    
    48   23   92 1    
    49   23   93 1    
    50   24   25 am   BACKBONE|DICT|INTERRES
    51   24   94 1    
    52   25   26 2    
    53   25   27 1    
    54   27   28 1    
    55   27   29 1    
    56   27   95 1    
    57   28   96 1    
    58   28   97 1    
    59   28   98 1    
    60   29   30 am   BACKBONE|DICT|INTERRES
    61   29   99 1    
    62   30   31 2    
    63   30   32 1    
    64   32   33 1    
    65   32   34 1    
    66   32  100 1    
    67   33  101 1    
    68   33  102 1    
    69   33  103 1    
    70   34   35 am   BACKBONE|DICT|INTERRES
    71   34  104 1    
    72   35   36 2    
    73   37   38 2    
    74   37   39 am   BACKBONE|DICT|INTERRES
    75   39   40 1    
    76   39  105 1    
    77   40   41 1    
    78   40   42 1    
    79   40  106 1    
    80   41  107 1    
    81   41  108 1    
    82   41  109 1    
    83   42   43 2    
    84   42   44 am   BACKBONE|DICT|INTERRES
    85   44   45 1    
    86   44  110 1    
    87   45   46 1    
    88   45   47 1    
    89   45  111 1    
    90   46  112 1    
    91   46  113 1    
    92   46  114 1    
    93   47   48 2    
    94   47   49 am   BACKBONE|DICT|INTERRES
    95   49   50 1    
    96   49  115 1    
    97   50   51 1    
    98   50   52 1    
    99   50  116 1    
   100   51  117 1    
   101   51  118 1    
   102   51  119 1    
   103   52   53 2    
   104   52   54 am   BACKBONE|DICT|INTERRES
   105   54   55 1    
   106   54  120 1    
   107   55   56 1    
   108   55   57 1    
   109   55  121 1    
   110   56  122 1    
   111   56  123 1    
   112   56  124 1    
   113   57   58 2    
   114   57   59 am   BACKBONE|DICT|INTERRES
   115   59   60 1    
   116   59  125 1    
   117   60   61 1    
   118   60   62 1    
   119   60  126 1    
   120   61  127 1    
   121   61  128 1    
   122   61  129 1    
   123   62   63 2    
   124   62   64 am   BACKBONE|DICT|INTERRES
   125   64   65 1    
   126   64  130 1    
   127   65   66 1    
   128   65   69 1    
   129   65  131 1    
   130   66   67 am   BACKBONE|DICT|INTERRES
   131   66   68 2    
   132   67  132 1    
   133   67  133 1    
   134   69   70 1    
   135   69  134 1    
   136   69  135 1    
   137   70   71 1    
   138   71  136 1    
   139   71  137 1    
@<TRIPOS>SUBSTRUCTURE
     1 UNK         1 GROUP             0       ****    0 ROOT    
