@<TRIPOS>MOLECULE
3R137
137   139    1
SMALL
USER_CHARGES


@<TRIPOS>ATOM
      1 CA         29.5542   -5.5950   -6.7915 C.3       0 UNK        -0.2020 
      2 C          28.9502   -5.5287   -5.3982 C.2       0 UNK         0.4855 
      3 O          27.7685   -5.8333   -5.2301 O.2       0 UNK        -0.5197 
      4 N          29.7474   -5.1391   -4.3945 N.am      1 UNK        -0.4892 
      5 CA         29.3020   -4.9399   -3.0110 C.3       1 UNK         0.0835 
      6 C6         30.5160   -4.7804   -2.0595 C.3       12 UNK        -0.0855 
      7 S7         30.0568   -4.6453   -0.2893 S.3       12 UNK        -0.2931 
      8 C8         31.0352   -3.2191    0.3060 C.3       12 UNK         0.0378 
      9 C9         30.8836   -1.9886   -0.5786 C.ar      12 UNK        -0.0802 
     10 C10        31.9602   -1.5540   -1.3552 C.ar      12 UNK        -0.0944 
     11 C11        31.8110   -0.4991   -2.2628 C.ar      12 UNK        -0.0787 
     12 C12        30.5735    0.1473   -2.3497 C.ar      12 UNK        -0.0862 
     13 C13        29.4955   -0.2479   -1.5458 C.ar      12 UNK        -0.0733 
     14 C14        29.6624   -1.3157   -0.6584 C.ar      12 UNK        -0.0832 
     15 C15        28.1167    0.3877   -1.6933 C.3       12 UNK         0.0240 
     16 S16        28.1444    2.1840   -2.0010 S.3       12 UNK        -0.2522 
     17 C17        26.5500    2.4159   -2.8612 C.3       12 UNK        -0.0967 
     18 CA         26.7321    2.4014   -4.3991 C.3       5 UNK         0.0660 
     19 N          27.1578    1.0886   -4.8902 N.am      5 UNK        -0.4015 
     20 C          27.7966    0.8857   -6.0487 C.2       4 UNK         0.4946 
     21 O          28.1255    1.7900   -6.8128 O.2       4 UNK        -0.5353 
     22 CA         28.0944   -0.5675   -6.4394 C.3       4 UNK         0.0277 
     23 CB         29.5128   -0.9417   -6.0042 C.3       4 UNK        -0.1981 
     24 N          27.1409   -1.5312   -5.8871 N.am      4 UNK        -0.4209 
     25 C          25.8447   -1.5839   -6.2292 C.2       3 UNK         0.4942 
     26 O          25.3236   -0.7951   -7.0182 O.2       3 UNK        -0.5208 
     27 CA         24.9665   -2.6565   -5.5610 C.3       3 UNK         0.0250 
     28 CB         24.8291   -3.8797   -6.4805 C.3       3 UNK        -0.1990 
     29 N          25.4553   -3.0877   -4.2493 N.am      3 UNK        -0.4232 
     30 C          25.5495   -2.2963   -3.1711 C.2       2 UNK         0.4993 
     31 O          25.1990   -1.1152   -3.1574 O.2       2 UNK        -0.5286 
     32 CA         26.1921   -2.9056   -1.9112 C.3       2 UNK         0.0209 
     33 CB         25.1121   -3.5027   -0.9956 C.3       2 UNK        -0.1931 
     34 N          27.2267   -3.9181   -2.1660 N.am      2 UNK        -0.4546 
     35 C          28.3131   -3.7543   -2.9373 C.2       1 UNK         0.5154 
     36 O          28.5351   -2.7333   -3.5899 O.2       1 UNK        -0.5181 
     37 C          25.4681    2.8987   -5.1312 C.2       5 UNK         0.5014 
     38 O          25.2621    4.1109   -5.2021 O.2       5 UNK        -0.5248 
     39 N          24.6612    1.9786   -5.6827 N.am      6 UNK        -0.4434 
     40 CA         23.5260    2.2976   -6.5497 C.3       6 UNK         0.0363 
     41 CB         22.4796    1.1731   -6.4756 C.3       6 UNK        -0.1936 
     42 C          23.9860    2.5288   -7.9982 C.2       6 UNK         0.5081 
     43 O          23.5290    3.4792   -8.6334 O.2       6 UNK        -0.5248 
     44 N          24.8876    1.6664   -8.4910 N.am      7 UNK        -0.4718 
     45 CA         25.4638    1.7413   -9.8379 C.3       7 UNK         0.0273 
     46 CB         26.1505    0.4051  -10.1631 C.3       7 UNK        -0.1935 
     47 C          26.4527    2.9063  -10.0297 C.2       7 UNK         0.5018 
     48 O          26.6159    3.3695  -11.1589 O.2       7 UNK        -0.5186 
     49 N          27.0993    3.3356   -8.9357 N.am      8 UNK        -0.4240 
     50 CA         28.1678    4.3389   -8.8492 C.3       8 UNK         0.0235 
     51 CB         27.6748    5.7290   -9.3058 C.3       8 UNK        -0.2000 
     52 C          29.4702    3.8940   -9.5468 C.2       8 UNK         0.4941 
     53 O          30.2276    4.7418  -10.0233 O.2       8 UNK        -0.5273 
     54 N          29.7150    2.5780   -9.5864 N.am      9 UNK        -0.4262 
     55 CA         30.8474    1.9136  -10.2284 C.3       9 UNK         0.0264 
     56 CB         30.7672    2.0732  -11.7622 C.3       9 UNK        -0.1955 
     57 C          30.8195    0.4263   -9.8507 C.2       9 UNK         0.5031 
     58 O          29.7852   -0.0578   -9.3869 O.2       9 UNK        -0.5390 
     59 N          31.9389   -0.2681  -10.1055 N.am      10 UNK        -0.4204 
     60 CA         32.1392   -1.7179   -9.9656 C.3       10 UNK         0.0237 
     61 CB         31.2522   -2.4895  -10.9681 C.3       10 UNK        -0.1985 
     62 C          31.9776   -2.2180   -8.5169 C.2       10 UNK         0.4970 
     63 O          31.0982   -3.0341   -8.2405 O.2       10 UNK        -0.4914 
     64 N          32.8464   -1.7171   -7.6270 N.am      11 UNK        -0.4285 
     65 CA         32.9483   -2.0981   -6.2060 C.3       11 UNK         0.1007 
     66 C          33.1239   -3.6271   -5.9612 C.2       11 UNK         0.5703 
     67 N          33.9585   -4.3092   -6.7368 N.am      11 UNK        -0.7361 
     68 O          32.4741   -4.2002   -5.0883 O.2       11 UNK        -0.4986 
     69 C69        34.0440   -1.2492   -5.5079 C.3       12 UNK        -0.0947 
     70 S70        34.0678   -1.3959   -3.6899 S.3       12 UNK        -0.2240 
     71 C71        32.9689   -0.0377   -3.1489 C.3       12 UNK         0.0194 
     72 H72        29.0964   -4.8421   -7.4329 H         1 UNK         0.0906 
     73 H73        30.6293   -5.4182   -6.7786 H         1 UNK         0.0906 
     74 H74        29.3780   -6.5750   -7.2339 H         1 UNK         0.0906 
     75 H75        30.7013   -4.8494   -4.5985 H         1 UNK         0.3140 
     76 H76        28.7656   -5.8444   -2.7157 H         1 UNK         0.1085 
     77 H77        31.1202   -3.9292   -2.3727 H         1 UNK         0.0836 
     78 H78        31.1702   -5.6480   -2.1584 H         1 UNK         0.0836 
     79 H79        32.0823   -3.5187    0.3743 H         1 UNK         0.0731 
     80 H80        30.7223   -2.9734    1.3217 H         1 UNK         0.0731 
     81 H81        32.9073   -2.0689   -1.2773 H         1 UNK         0.1312 
     82 H82        30.4447    0.9524   -3.0597 H         1 UNK         0.1406 
     83 H83        28.8289   -1.6612   -0.0622 H         1 UNK         0.1631 
     84 H84        27.5088    0.2048   -0.8060 H         1 UNK         0.0717 
     85 H85        27.6221   -0.1173   -2.5202 H         1 UNK         0.0717 
     86 H86        25.8309    1.6597   -2.5390 H         1 UNK         0.0934 
     87 H87        26.1456    3.3761   -2.5342 H         1 UNK         0.0934 
     88 H88        27.5202    3.1186   -4.6416 H         1 UNK         0.0739 
     89 H89        26.9035    0.2876   -4.3292 H         1 UNK         0.3093 
     90 H90        28.0396   -0.6419   -7.5261 H         1 UNK         0.0818 
     91 H91        29.7231   -1.9879   -6.2239 H         1 UNK         0.0819 
     92 H92        30.2487   -0.3360   -6.5344 H         1 UNK         0.0819 
     93 H93        29.6676   -0.7874   -4.9364 H         1 UNK         0.0819 
     94 H94        27.5020   -2.1666   -5.1802 H         1 UNK         0.3041 
     95 H95        23.9752   -2.2207   -5.4191 H         1 UNK         0.0784 
     96 H96        24.4390   -3.5912   -7.4578 H         1 UNK         0.0793 
     97 H97        25.7894   -4.3706   -6.6447 H         1 UNK         0.0793 
     98 H98        24.1421   -4.6160   -6.0632 H         1 UNK         0.0793 
     99 H99        25.8009   -4.0352   -4.1797 H         1 UNK         0.3024 
    100 H100       26.6723   -2.0883   -1.3731 H         1 UNK         0.1171 
    101 H101       25.5330   -3.8289   -0.0443 H         1 UNK         0.0786 
    102 H102       24.3403   -2.7653   -0.7690 H         1 UNK         0.0786 
    103 H103       24.6191   -4.3590   -1.4575 H         1 UNK         0.0786 
    104 H104       27.1260   -4.7895   -1.6651 H         1 UNK         0.2977 
    105 H105       24.9117    1.0017   -5.6115 H         1 UNK         0.3127 
    106 H106       23.0522    3.2163   -6.1964 H         1 UNK         0.0770 
    107 H107       22.8727    0.2212   -6.8333 H         1 UNK         0.0814 
    108 H108       21.6092    1.4140   -7.0872 H         1 UNK         0.0814 
    109 H109       22.1271    1.0271   -5.4545 H         1 UNK         0.0814 
    110 H110       25.1552    0.8643   -7.9249 H         1 UNK         0.2983 
    111 H111       24.6465    1.8876  -10.5476 H         1 UNK         0.0947 
    112 H112       26.9790    0.2031   -9.4839 H         1 UNK         0.0806 
    113 H113       26.5555    0.4087  -11.1760 H         1 UNK         0.0806 
    114 H114       25.4518   -0.4289  -10.0947 H         1 UNK         0.0806 
    115 H115       26.9596    2.8086   -8.0796 H         1 UNK         0.3000 
    116 H116       28.4141    4.4147   -7.7890 H         1 UNK         0.0850 
    117 H117       26.7535    6.0100   -8.7955 H         1 UNK         0.0810 
    118 H118       27.4885    5.7616  -10.3795 H         1 UNK         0.0810 
    119 H119       28.4153    6.4981   -9.0831 H         1 UNK         0.0810 
    120 H120       29.0806    1.9393   -9.1169 H         1 UNK         0.3040 
    121 H121       31.7725    2.3553   -9.8528 H         1 UNK         0.0766 
    122 H122       31.5787    1.5431  -12.2618 H         1 UNK         0.0812 
    123 H123       30.8401    3.1174  -12.0651 H         1 UNK         0.0812 
    124 H124       29.8292    1.6781  -12.1549 H         1 UNK         0.0812 
    125 H125       32.7306    0.2410  -10.4746 H         1 UNK         0.3205 
    126 H126       33.1766   -1.9136  -10.2416 H         1 UNK         0.0754 
    127 H127       31.4631   -3.5591  -10.9320 H         1 UNK         0.0769 
    128 H128       31.4295   -2.1586  -11.9913 H         1 UNK         0.0769 
    129 H129       30.1902   -2.3623  -10.7546 H         1 UNK         0.0769 
    130 H130       33.5312   -1.0516   -7.9523 H         1 UNK         0.2981 
    131 H131       32.0025   -1.8269   -5.7421 H         1 UNK         0.0541 
    132 H132       34.0660   -5.3000   -6.5901 H         1 UNK         0.3459 
    133 H133       34.4834   -3.8472   -7.4618 H         1 UNK         0.3459 
    134 H134       35.0304   -1.5343   -5.8781 H         1 UNK         0.0612 
    135 H135       33.9282   -0.1955   -5.7659 H         1 UNK         0.0612 
    136 H136       33.5632    0.6895   -2.5947 H         1 UNK         0.0624 
    137 H137       32.5778    0.4851   -4.0227 H         1 UNK         0.0624 
@<TRIPOS>BOND
     1    1    2 1    
     2    1   72 1    
     3    1   73 1    
     4    1   74 1    
     5    2    3 2    
     6    2    4 am   BACKBONE|DICT|INTERRES
     7    4    5 1    
     8    4   75 1    
     9    5    6 1    
    10    5   35 1    
    11    5   76 1    
    12    6    7 1    
    13    6   77 1    
    14    6   78 1    
    15    7    8 1    
    16    8    9 1    
    17    8   79 1    
    18    8   80 1    
    19    9   10 ar   
    20    9   14 ar   
    21   10   11 ar   
    22   10   81 1    
    23   11   12 ar   
    24   11   71 1    
    25   12   13 ar   
    26   12   82 1    
    27   13   14 ar   
    28   13   15 1    
    29   14   83 1    
    30   15   16 1    
    31   15   84 1    
    32   15   85 1    
    33   16   17 1    
    34   17   18 1    
    35   17   86 1    
    36   17   87 1    
    37   18   19 1    
    38   18   37 1    
    39   18   88 1    
    40   19   20 am   BACKBONE|DICT|INTERRES
    41   19   89 1    
    42   20   21 2    
    43   20   22 1    
    44   22   23 1    
    45   22   24 1    
    46   22   90 1    
    47   23   91 1    
    48   23   92 1    
    49   23   93 1    
    50   24   25 am   BACKBONE|DICT|INTERRES
    51   24   94 1    
    52   25   26 2    
    53   25   27 1    
    54   27   28 1    
    55   27   29 1    
    56   27   95 1    
    57   28   96 1    
    58   28   97 1    
    59   28   98 1    
    60   29   30 am   BACKBONE|DICT|INTERRES
    61   29   99 1    
    62   30   31 2    
    63   30   32 1    
    64   32   33 1    
    65   32   34 1    
    66   32  100 1    
    67   33  101 1    
    68   33  102 1    
    69   33  103 1    
    70   34   35 am   BACKBONE|DICT|INTERRES
    71   34  104 1    
    72   35   36 2    
    73   37   38 2    
    74   37   39 am   BACKBONE|DICT|INTERRES
    75   39   40 1    
    76   39  105 1    
    77   40   41 1    
    78   40   42 1    
    79   40  106 1    
    80   41  107 1    
    81   41  108 1    
    82   41  109 1    
    83   42   43 2    
    84   42   44 am   BACKBONE|DICT|INTERRES
    85   44   45 1    
    86   44  110 1    
    87   45   46 1    
    88   45   47 1    
    89   45  111 1    
    90   46  112 1    
    91   46  113 1    
    92   46  114 1    
    93   47   48 2    
    94   47   49 am   BACKBONE|DICT|INTERRES
    95   49   50 1    
    96   49  115 1    
    97   50   51 1    
    98   50   52 1    
    99   50  116 1    
   100   51  117 1    
   101   51  118 1    
   102   51  119 1    
   103   52   53 2    
   104   52   54 am   BACKBONE|DICT|INTERRES
   105   54   55 1    
   106   54  120 1    
   107   55   56 1    
   108   55   57 1    
   109   55  121 1    
   110   56  122 1    
   111   56  123 1    
   112   56  124 1    
   113   57   58 2    
   114   57   59 am   BACKBONE|DICT|INTERRES
   115   59   60 1    
   116   59  125 1    
   117   60   61 1    
   118   60   62 1    
   119   60  126 1    
   120   61  127 1    
   121   61  128 1    
   122   61  129 1    
   123   62   63 2    
   124   62   64 am   BACKBONE|DICT|INTERRES
   125   64   65 1    
   126   64  130 1    
   127   65   66 1    
   128   65   69 1    
   129   65  131 1    
   130   66   67 am   BACKBONE|DICT|INTERRES
   131   66   68 2    
   132   67  132 1    
   133   67  133 1    
   134   69   70 1    
   135   69  134 1    
   136   69  135 1    
   137   70   71 1    
   138   71  136 1    
   139   71  137 1    
@<TRIPOS>SUBSTRUCTURE
     1 UNK         1 GROUP             0       ****    0 ROOT    
