@<TRIPOS>MOLECULE
3R137
137   139    1
SMALL
USER_CHARGES


@<TRIPOS>ATOM
      1 CA         27.7673    0.0599    4.7777 C.3       0 UNK        -0.2020 
      2 C          27.6547   -0.0252    3.2628 C.2       0 UNK         0.4855 
      3 O          27.7455    0.9976    2.5836 O.2       0 UNK        -0.5197 
      4 N          27.4575   -1.2346    2.7293 N.am      1 UNK        -0.4892 
      5 CA         27.2936   -1.5205    1.3057 C.3       1 UNK         0.0835 
      6 C6         28.6672   -1.7225    0.6126 C.3       12 UNK        -0.0855 
      7 S7         28.5997   -1.5366   -1.2003 S.3       12 UNK        -0.2931 
      8 C8         29.5601   -2.9864   -1.7308 C.3       12 UNK         0.0378 
      9 C9         29.8070   -2.9814   -3.2329 C.ar      12 UNK        -0.0802 
     10 C10        30.7660   -2.1239   -3.7811 C.ar      12 UNK        -0.0944 
     11 C11        31.0332   -2.1405   -5.1535 C.ar      12 UNK        -0.0787 
     12 C12        30.3386   -3.0280   -5.9798 C.ar      12 UNK        -0.0862 
     13 C13        29.3839   -3.8960   -5.4430 C.ar      12 UNK        -0.0733 
     14 C14        29.1122   -3.8595   -4.0709 C.ar      12 UNK        -0.0832 
     15 C15        28.6793   -4.9089   -6.3317 C.3       12 UNK         0.0240 
     16 S16        27.0930   -4.2822   -6.9571 S.3       12 UNK        -0.2522 
     17 C17        27.5900   -3.3512   -8.4488 C.3       12 UNK        -0.0967 
     18 CA         27.0925   -1.8846   -8.4749 C.3       5 UNK         0.0660 
     19 N          25.6798   -1.7668   -8.1059 N.am      5 UNK        -0.4015 
     20 C          24.9341   -0.6586   -8.1966 C.2       4 UNK         0.4946 
     21 O          25.3442    0.3999   -8.6748 O.2       4 UNK        -0.5353 
     22 CA         23.5174   -0.7226   -7.5972 C.3       4 UNK         0.0277 
     23 CB         22.4976   -1.1013   -8.6825 C.3       4 UNK        -0.1981 
     24 N          23.3796   -1.6346   -6.4500 N.am      4 UNK        -0.4209 
     25 C          24.0955   -1.5570   -5.3188 C.2       3 UNK         0.4942 
     26 O          24.9999   -0.7372   -5.1381 O.2       3 UNK        -0.5208 
     27 CA         23.7784   -2.5757   -4.2178 C.3       3 UNK         0.0250 
     28 CB         24.3612   -3.9601   -4.5651 C.3       3 UNK        -0.1990 
     29 N          24.3624   -2.0677   -2.9799 N.am      3 UNK        -0.4232 
     30 C          24.2068   -2.5636   -1.7506 C.2       2 UNK         0.4993 
     31 O          23.5128   -3.5469   -1.4774 O.2       2 UNK        -0.5286 
     32 CA         24.9379   -1.8243   -0.6256 C.3       2 UNK         0.0209 
     33 CB         24.0125   -0.7863    0.0378 C.3       2 UNK        -0.1931 
     34 N          25.3662   -2.8191    0.3550 N.am      2 UNK        -0.4546 
     35 C          26.3887   -2.7685    1.2181 C.2       1 UNK         0.5154 
     36 O          26.6272   -3.7106    1.9767 O.2       1 UNK        -0.5181 
     37 C          28.0236   -0.9278   -7.6999 C.2       5 UNK         0.5014 
     38 O          29.0452   -0.5257   -8.2589 O.2       5 UNK        -0.5248 
     39 N          27.6414   -0.5004   -6.4866 N.am      6 UNK        -0.4434 
     40 CA         28.3655    0.5169   -5.7174 C.3       6 UNK         0.0363 
     41 CB         27.8097    0.5740   -4.2874 C.3       6 UNK        -0.1936 
     42 C          28.3426    1.9135   -6.3697 C.2       6 UNK         0.5081 
     43 O          29.1938    2.7374   -6.0364 O.2       6 UNK        -0.5248 
     44 N          27.3975    2.1512   -7.2901 N.am      7 UNK        -0.4718 
     45 CA         27.3381    3.3394   -8.1387 C.3       7 UNK         0.0273 
     46 CB         25.9156    3.9226   -8.0998 C.3       7 UNK        -0.1935 
     47 C          27.7462    3.0058   -9.5821 C.2       7 UNK         0.5018 
     48 O          28.5174    3.7606  -10.1740 O.2       7 UNK        -0.5186 
     49 N          27.2106    1.9051  -10.1329 N.am      8 UNK        -0.4240 
     50 CA         27.3723    1.5240  -11.5390 C.3       8 UNK         0.0235 
     51 CB         26.2953    0.4979  -11.9283 C.3       8 UNK        -0.2000 
     52 C          28.7765    1.0079  -11.8933 C.2       8 UNK         0.4941 
     53 O          29.3047    1.3948  -12.9367 O.2       8 UNK        -0.5273 
     54 N          29.3535    0.1498  -11.0400 N.am      9 UNK        -0.4262 
     55 CA         30.7208   -0.3597  -11.1913 C.3       9 UNK         0.0264 
     56 CB         30.7989   -1.8260  -10.7305 C.3       9 UNK        -0.1955 
     57 C          31.7157    0.5116  -10.4122 C.2       9 UNK         0.5031 
     58 O          32.8462    0.6862  -10.8669 O.2       9 UNK        -0.5390 
     59 N          31.2825    1.0380   -9.2565 N.am      10 UNK        -0.4204 
     60 CA         31.9441    2.0193   -8.3821 C.3       10 UNK         0.0237 
     61 CB         32.2036    3.3411   -9.1315 C.3       10 UNK        -0.1985 
     62 C          33.2149    1.5361   -7.6575 C.2       10 UNK         0.4970 
     63 O          33.5595    2.1212   -6.6304 O.2       10 UNK        -0.4914 
     64 N          33.8692    0.4857   -8.1689 N.am      11 UNK        -0.4285 
     65 CA         35.0768   -0.1520   -7.6150 C.3       11 UNK         0.1007 
     66 C          36.3582    0.7368   -7.6766 C.2       11 UNK         0.5703 
     67 N          36.3976    1.7821   -8.4951 N.am      11 UNK        -0.7361 
     68 O          37.3478    0.4603   -7.0020 O.2       11 UNK        -0.4986 
     69 C69        34.8406   -0.7811   -6.2092 C.3       12 UNK        -0.0947 
     70 S70        33.5852   -2.1059   -6.2076 S.3       12 UNK        -0.2240 
     71 C71        32.0741   -1.2033   -5.7436 C.3       12 UNK         0.0194 
     72 H72        27.6798   -0.9188    5.2492 H         1 UNK         0.0906 
     73 H73        28.7299    0.4862    5.0588 H         1 UNK         0.0906 
     74 H74        26.9813    0.7002    5.1770 H         1 UNK         0.0906 
     75 H75        27.3528   -2.0508    3.3209 H         1 UNK         0.3140 
     76 H76        26.7938   -0.6628    0.8562 H         1 UNK         0.1085 
     77 H77        29.1032   -2.6857    0.8856 H         1 UNK         0.0836 
     78 H78        29.3745   -0.9720    0.9695 H         1 UNK         0.0836 
     79 H79        29.0358   -3.8945   -1.4283 H         1 UNK         0.0731 
     80 H80        30.5193   -2.9951   -1.2107 H         1 UNK         0.0731 
     81 H81        31.3063   -1.4460   -3.1343 H         1 UNK         0.1312 
     82 H82        30.5560   -3.0495   -7.0387 H         1 UNK         0.1406 
     83 H83        28.3752   -4.5323   -3.6535 H         1 UNK         0.1631 
     84 H84        28.4884   -5.8198   -5.7622 H         1 UNK         0.0717 
     85 H85        29.3199   -5.2077   -7.1629 H         1 UNK         0.0717 
     86 H86        28.6708   -3.4010   -8.5920 H         1 UNK         0.0934 
     87 H87        27.1688   -3.8814   -9.3044 H         1 UNK         0.0934 
     88 H88        27.1565   -1.5598   -9.5139 H         1 UNK         0.0739 
     89 H89        25.2741   -2.5862   -7.6773 H         1 UNK         0.3093 
     90 H90        23.2794    0.2820   -7.2414 H         1 UNK         0.0818 
     91 H91        21.4758   -1.0380   -8.3078 H         1 UNK         0.0819 
     92 H92        22.5683   -0.4260   -9.5368 H         1 UNK         0.0819 
     93 H93        22.6584   -2.1141   -9.0540 H         1 UNK         0.0819 
     94 H94        22.6607   -2.3412   -6.5201 H         1 UNK         0.3041 
     95 H95        22.6949   -2.6416   -4.1015 H         1 UNK         0.0784 
     96 H96        24.0459   -4.2937   -5.5544 H         1 UNK         0.0793 
     97 H97        25.4512   -3.9453   -4.5530 H         1 UNK         0.0793 
     98 H98        24.0347   -4.7204   -3.8559 H         1 UNK         0.0793 
     99 H99        24.9307   -1.2415   -3.1324 H         1 UNK         0.3024 
    100 H100       25.8011   -1.3224   -1.0619 H         1 UNK         0.1171 
    101 H101       24.5069   -0.2513    0.8479 H         1 UNK         0.0786 
    102 H102       23.6830   -0.0399   -0.6863 H         1 UNK         0.0786 
    103 H103       23.1179   -1.2549    0.4505 H         1 UNK         0.0786 
    104 H104       24.8180   -3.6691    0.3076 H         1 UNK         0.2977 
    105 H105       26.7606   -0.8187   -6.0933 H         1 UNK         0.3127 
    106 H106       29.4094    0.2045   -5.6598 H         1 UNK         0.0770 
    107 H107       26.7995    0.9833   -4.2620 H         1 UNK         0.0814 
    108 H108       27.7843   -0.4174   -3.8356 H         1 UNK         0.0814 
    109 H109       28.4331    1.2049   -3.6528 H         1 UNK         0.0814 
    110 H110       26.7320    1.4161   -7.5011 H         1 UNK         0.2983 
    111 H111       28.0251    4.1055   -7.7721 H         1 UNK         0.0947 
    112 H112       25.6412    4.2232   -7.0886 H         1 UNK         0.0806 
    113 H113       25.1706    3.2059   -8.4481 H         1 UNK         0.0806 
    114 H114       25.8393    4.8077   -8.7328 H         1 UNK         0.0806 
    115 H115       26.5443    1.3593   -9.5881 H         1 UNK         0.3000 
    116 H116       27.1999    2.4198  -12.1400 H         1 UNK         0.0850 
    117 H117       26.3648    0.2432  -12.9868 H         1 UNK         0.0810 
    118 H118       25.2933    0.8915  -11.7558 H         1 UNK         0.0810 
    119 H119       26.3891   -0.4293  -11.3649 H         1 UNK         0.0810 
    120 H120       28.8845   -0.0799  -10.1715 H         1 UNK         0.3040 
    121 H121       31.0086   -0.3319  -12.2446 H         1 UNK         0.0766 
    122 H122       30.6432   -1.9348   -9.6577 H         1 UNK         0.0812 
    123 H123       31.7807   -2.2456  -10.9531 H         1 UNK         0.0812 
    124 H124       30.0604   -2.4432  -11.2421 H         1 UNK         0.0812 
    125 H125       30.3846    0.7016   -8.9176 H         1 UNK         0.3205 
    126 H126       31.2216    2.2314   -7.5949 H         1 UNK         0.0754 
    127 H127       32.5888    4.1044   -8.4541 H         1 UNK         0.0769 
    128 H128       31.2856    3.7326   -9.5700 H         1 UNK         0.0769 
    129 H129       32.9335    3.2206   -9.9324 H         1 UNK         0.0769 
    130 H130       33.5615    0.1465   -9.0730 H         1 UNK         0.2981 
    131 H131       35.2976   -0.9747   -8.2957 H         1 UNK         0.0541 
    132 H132       35.6025    2.0102   -9.0701 H         1 UNK         0.3459 
    133 H133       37.2328    2.3444   -8.5383 H         1 UNK         0.3459 
    134 H134       34.5844   -0.0201   -5.4714 H         1 UNK         0.0612 
    135 H135       35.7599   -1.2422   -5.8446 H         1 UNK         0.0612 
    136 H136       32.3152   -0.4100   -5.0345 H         1 UNK         0.0624 
    137 H137       31.6583   -0.7180   -6.6271 H         1 UNK         0.0624 
@<TRIPOS>BOND
     1    1    2 1    
     2    1   72 1    
     3    1   73 1    
     4    1   74 1    
     5    2    3 2    
     6    2    4 am   BACKBONE|DICT|INTERRES
     7    4    5 1    
     8    4   75 1    
     9    5    6 1    
    10    5   35 1    
    11    5   76 1    
    12    6    7 1    
    13    6   77 1    
    14    6   78 1    
    15    7    8 1    
    16    8    9 1    
    17    8   79 1    
    18    8   80 1    
    19    9   10 ar   
    20    9   14 ar   
    21   10   11 ar   
    22   10   81 1    
    23   11   12 ar   
    24   11   71 1    
    25   12   13 ar   
    26   12   82 1    
    27   13   14 ar   
    28   13   15 1    
    29   14   83 1    
    30   15   16 1    
    31   15   84 1    
    32   15   85 1    
    33   16   17 1    
    34   17   18 1    
    35   17   86 1    
    36   17   87 1    
    37   18   19 1    
    38   18   37 1    
    39   18   88 1    
    40   19   20 am   BACKBONE|DICT|INTERRES
    41   19   89 1    
    42   20   21 2    
    43   20   22 1    
    44   22   23 1    
    45   22   24 1    
    46   22   90 1    
    47   23   91 1    
    48   23   92 1    
    49   23   93 1    
    50   24   25 am   BACKBONE|DICT|INTERRES
    51   24   94 1    
    52   25   26 2    
    53   25   27 1    
    54   27   28 1    
    55   27   29 1    
    56   27   95 1    
    57   28   96 1    
    58   28   97 1    
    59   28   98 1    
    60   29   30 am   BACKBONE|DICT|INTERRES
    61   29   99 1    
    62   30   31 2    
    63   30   32 1    
    64   32   33 1    
    65   32   34 1    
    66   32  100 1    
    67   33  101 1    
    68   33  102 1    
    69   33  103 1    
    70   34   35 am   BACKBONE|DICT|INTERRES
    71   34  104 1    
    72   35   36 2    
    73   37   38 2    
    74   37   39 am   BACKBONE|DICT|INTERRES
    75   39   40 1    
    76   39  105 1    
    77   40   41 1    
    78   40   42 1    
    79   40  106 1    
    80   41  107 1    
    81   41  108 1    
    82   41  109 1    
    83   42   43 2    
    84   42   44 am   BACKBONE|DICT|INTERRES
    85   44   45 1    
    86   44  110 1    
    87   45   46 1    
    88   45   47 1    
    89   45  111 1    
    90   46  112 1    
    91   46  113 1    
    92   46  114 1    
    93   47   48 2    
    94   47   49 am   BACKBONE|DICT|INTERRES
    95   49   50 1    
    96   49  115 1    
    97   50   51 1    
    98   50   52 1    
    99   50  116 1    
   100   51  117 1    
   101   51  118 1    
   102   51  119 1    
   103   52   53 2    
   104   52   54 am   BACKBONE|DICT|INTERRES
   105   54   55 1    
   106   54  120 1    
   107   55   56 1    
   108   55   57 1    
   109   55  121 1    
   110   56  122 1    
   111   56  123 1    
   112   56  124 1    
   113   57   58 2    
   114   57   59 am   BACKBONE|DICT|INTERRES
   115   59   60 1    
   116   59  125 1    
   117   60   61 1    
   118   60   62 1    
   119   60  126 1    
   120   61  127 1    
   121   61  128 1    
   122   61  129 1    
   123   62   63 2    
   124   62   64 am   BACKBONE|DICT|INTERRES
   125   64   65 1    
   126   64  130 1    
   127   65   66 1    
   128   65   69 1    
   129   65  131 1    
   130   66   67 am   BACKBONE|DICT|INTERRES
   131   66   68 2    
   132   67  132 1    
   133   67  133 1    
   134   69   70 1    
   135   69  134 1    
   136   69  135 1    
   137   70   71 1    
   138   71  136 1    
   139   71  137 1    
@<TRIPOS>SUBSTRUCTURE
     1 UNK         1 GROUP             0       ****    0 ROOT    
