@<TRIPOS>MOLECULE
3R137
137   139    1
SMALL
USER_CHARGES


@<TRIPOS>ATOM
      1 CA         25.9210   -1.2906    1.6373 C.3       0 UNK        -0.2020 
      2 C          25.7230   -2.6728    1.0178 C.2       0 UNK         0.4855 
      3 O          25.0265   -3.4984    1.6054 O.2       0 UNK        -0.5197 
      4 N          26.3168   -2.9875   -0.1427 N.am      1 UNK        -0.4892 
      5 CA         27.1240   -2.1163   -1.0087 C.3       1 UNK         0.0835 
      6 C6         27.8154   -2.9266   -2.1347 C.3       12 UNK        -0.0855 
      7 S7         28.9933   -4.1500   -1.4646 S.3       12 UNK        -0.2931 
      8 C8         30.6041   -3.5039   -2.0487 C.3       12 UNK         0.0378 
      9 C9         30.9449   -3.7634   -3.5210 C.ar      12 UNK        -0.0802 
     10 C10        32.1213   -3.2077   -4.0391 C.ar      12 UNK        -0.0944 
     11 C11        32.5085   -3.4493   -5.3615 C.ar      12 UNK        -0.0787 
     12 C12        31.6923   -4.2286   -6.1850 C.ar      12 UNK        -0.0862 
     13 C13        30.5154   -4.7920   -5.6874 C.ar      12 UNK        -0.0733 
     14 C14        30.1550   -4.5665   -4.3556 C.ar      12 UNK        -0.0832 
     15 C15        29.6596   -5.6831   -6.5774 C.3       12 UNK         0.0240 
     16 S16        28.5488   -4.7239   -7.6537 S.3       12 UNK        -0.2522 
     17 C17        27.3019   -4.1282   -6.4586 C.3       12 UNK        -0.0967 
     18 CA         26.6434   -2.7776   -6.8579 C.3       5 UNK         0.0660 
     19 N          25.5608   -2.3790   -5.9540 N.am      5 UNK        -0.4015 
     20 C          24.3989   -3.0436   -5.8486 C.2       4 UNK         0.4946 
     21 O          24.1183   -4.0363   -6.5220 O.2       4 UNK        -0.5353 
     22 CA         23.3656   -2.5518   -4.8195 C.3       4 UNK         0.0277 
     23 CB         23.4613   -3.3858   -3.5313 C.3       4 UNK        -0.1981 
     24 N          23.4828   -1.1284   -4.4991 N.am      4 UNK        -0.4209 
     25 C          23.1407   -0.1436   -5.3448 C.2       3 UNK         0.4942 
     26 O          22.6649   -0.3464   -6.4625 O.2       3 UNK        -0.5208 
     27 CA         23.3565    1.3138   -4.8923 C.3       3 UNK         0.0250 
     28 CB         22.0121    1.9662   -4.5298 C.3       3 UNK        -0.1990 
     29 N          24.2853    1.4922   -3.7729 N.am      3 UNK        -0.4232 
     30 C          25.5718    1.1214   -3.7488 C.2       2 UNK         0.4993 
     31 O          26.1331    0.5457   -4.6838 O.2       2 UNK        -0.5286 
     32 CA         26.3610    1.3918   -2.4515 C.3       2 UNK         0.0209 
     33 CB         25.5569    2.1393   -1.3621 C.3       2 UNK        -0.1931 
     34 N          26.9357    0.1617   -1.8897 N.am      2 UNK        -0.4546 
     35 C          26.2790   -0.9740   -1.6107 C.2       1 UNK         0.5154 
     36 O          25.0740   -1.1407   -1.8176 O.2       1 UNK        -0.5181 
     37 C          27.6700   -1.6427   -6.9907 C.2       5 UNK         0.5014 
     38 O          27.8902   -1.1618   -8.1024 O.2       5 UNK        -0.5248 
     39 N          28.2822   -1.2435   -5.8654 N.am      6 UNK        -0.4434 
     40 CA         29.4212   -0.3190   -5.7818 C.3       6 UNK         0.0363 
     41 CB         29.7536   -0.0395   -4.3089 C.3       6 UNK        -0.1936 
     42 C          29.2584    1.0093   -6.5372 C.2       6 UNK         0.5081 
     43 O          30.2259    1.4763   -7.1361 O.2       6 UNK        -0.5248 
     44 N          28.0494    1.5829   -6.5179 N.am      7 UNK        -0.4718 
     45 CA         27.7127    2.8189   -7.2299 C.3       7 UNK         0.0273 
     46 CB         26.3447    3.3266   -6.7510 C.3       7 UNK        -0.1935 
     47 C          27.7180    2.6662   -8.7620 C.2       7 UNK         0.5018 
     48 O          28.0495    3.6261   -9.4579 O.2       7 UNK        -0.5186 
     49 N          27.3608    1.4738   -9.2581 N.am      8 UNK        -0.4240 
     50 CA         27.3769    1.1298  -10.6815 C.3       8 UNK         0.0235 
     51 CB         26.3052    0.0646  -10.9670 C.3       8 UNK        -0.2000 
     52 C          28.7644    0.6379  -11.1187 C.2       8 UNK         0.4941 
     53 O          29.2143    0.9842  -12.2111 O.2       8 UNK        -0.5273 
     54 N          29.4244   -0.1410  -10.2500 N.am      9 UNK        -0.4262 
     55 CA         30.7804   -0.6630  -10.4399 C.3       9 UNK         0.0264 
     56 CB         31.0122   -1.8040   -9.4358 C.3       9 UNK        -0.1955 
     57 C          31.8854    0.4064  -10.3182 C.2       9 UNK         0.5031 
     58 O          33.0100    0.1477  -10.7492 O.2       9 UNK        -0.5390 
     59 N          31.5490    1.5706   -9.7415 N.am      10 UNK        -0.4204 
     60 CA         32.4141    2.7174   -9.4400 C.3       10 UNK         0.0237 
     61 CB         33.0150    3.3293  -10.7240 C.3       10 UNK        -0.1985 
     62 C          33.4654    2.3881   -8.3629 C.2       10 UNK         0.4970 
     63 O          34.6199    2.8059   -8.4731 O.2       10 UNK        -0.4914 
     64 N          33.0323    1.6503   -7.3347 N.am      11 UNK        -0.4285 
     65 CA         33.8397    1.2570   -6.1701 C.3       11 UNK         0.1007 
     66 C          33.8227    2.3061   -5.0218 C.2       11 UNK         0.5703 
     67 N          32.9870    3.3376   -5.0713 N.am      11 UNK        -0.7361 
     68 O          34.5934    2.1886   -4.0721 O.2       11 UNK        -0.4986 
     69 C69        33.4397   -0.1471   -5.6468 C.3       12 UNK        -0.0947 
     70 S70        33.6313   -1.4391   -6.9162 S.3       12 UNK        -0.2240 
     71 C71        33.8359   -2.9253   -5.8916 C.3       12 UNK         0.0194 
     72 H72        26.9593   -0.9664    1.5865 H         1 UNK         0.0906 
     73 H73        25.2942   -0.5529    1.1371 H         1 UNK         0.0906 
     74 H74        25.6384   -1.3050    2.6898 H         1 UNK         0.0906 
     75 H75        26.1686   -3.9164   -0.5091 H         1 UNK         0.3140 
     76 H76        27.9056   -1.6667   -0.3933 H         1 UNK         0.1085 
     77 H77        27.0760   -3.4552   -2.7398 H         1 UNK         0.0836 
     78 H78        28.3482   -2.2667   -2.8197 H         1 UNK         0.0836 
     79 H79        31.3835   -3.9633   -1.4392 H         1 UNK         0.0731 
     80 H80        30.6515   -2.4333   -1.8441 H         1 UNK         0.0731 
     81 H81        32.7546   -2.6060   -3.4012 H         1 UNK         0.1312 
     82 H82        31.9853   -4.4149   -7.2094 H         1 UNK         0.1406 
     83 H83        29.2598   -5.0363   -3.9758 H         1 UNK         0.1631 
     84 H84        29.0720   -6.3803   -5.9780 H         1 UNK         0.0717 
     85 H85        30.3074   -6.2973   -7.2047 H         1 UNK         0.0717 
     86 H86        26.5488   -4.9126   -6.3804 H         1 UNK         0.0934 
     87 H87        27.7386   -4.0469   -5.4651 H         1 UNK         0.0934 
     88 H88        26.1982   -2.9053   -7.8475 H         1 UNK         0.0739 
     89 H89        25.6917   -1.5174   -5.4348 H         1 UNK         0.3093 
     90 H90        22.3746   -2.7155   -5.2491 H         1 UNK         0.0818 
     91 H91        22.7486   -3.0460   -2.7797 H         1 UNK         0.0819 
     92 H92        23.2441   -4.4356   -3.7328 H         1 UNK         0.0819 
     93 H93        24.4583   -3.3429   -3.0929 H         1 UNK         0.0819 
     94 H94        23.8818   -0.8940   -3.5959 H         1 UNK         0.3041 
     95 H95        23.7705    1.8492   -5.7472 H         1 UNK         0.0784 
     96 H96        21.3020    1.8853   -5.3542 H         1 UNK         0.0793 
     97 H97        21.5559    1.4922   -3.6597 H         1 UNK         0.0793 
     98 H98        22.1304    3.0280   -4.3125 H         1 UNK         0.0793 
     99 H99        23.9058    1.9247   -2.9432 H         1 UNK         0.3024 
    100 H100       27.1968    2.0301   -2.7431 H         1 UNK         0.1171 
    101 H101       25.1891    3.1002   -1.7251 H         1 UNK         0.0786 
    102 H102       24.7018    1.5610   -1.0092 H         1 UNK         0.0786 
    103 H103       26.1835    2.3520   -0.4957 H         1 UNK         0.0786 
    104 H104       27.9270    0.2011   -1.6991 H         1 UNK         0.2977 
    105 H105       28.0113   -1.6808   -5.0001 H         1 UNK         0.3127 
    106 H106       30.2736   -0.8354   -6.2262 H         1 UNK         0.0770 
    107 H107       28.8894    0.3514   -3.7764 H         1 UNK         0.0814 
    108 H108       30.5465    0.7036   -4.2134 H         1 UNK         0.0814 
    109 H109       30.0961   -0.9393   -3.8011 H         1 UNK         0.0814 
    110 H110       27.3143    1.1401   -5.9689 H         1 UNK         0.2983 
    111 H111       28.4650    3.5682   -6.9733 H         1 UNK         0.0947 
    112 H112       26.0918    4.2751   -7.2268 H         1 UNK         0.0806 
    113 H113       26.3341    3.4919   -5.6738 H         1 UNK         0.0806 
    114 H114       25.5526    2.6188   -6.9942 H         1 UNK         0.0806 
    115 H115       27.1867    0.7133   -8.6106 H         1 UNK         0.3000 
    116 H116       27.1342    2.0178  -11.2698 H         1 UNK         0.0850 
    117 H117       26.2823   -0.1890  -12.0277 H         1 UNK         0.0810 
    118 H118       25.3110    0.4219  -10.6979 H         1 UNK         0.0810 
    119 H119       26.4895   -0.8582  -10.4157 H         1 UNK         0.0810 
    120 H120       28.9396   -0.4323   -9.4021 H         1 UNK         0.3040 
    121 H121       30.8434   -1.0786  -11.4477 H         1 UNK         0.0766 
    122 H122       30.9432   -1.4520   -8.4068 H         1 UNK         0.0812 
    123 H123       32.0015   -2.2455   -9.5636 H         1 UNK         0.0812 
    124 H124       30.2811   -2.6027   -9.5628 H         1 UNK         0.0812 
    125 H125       30.6172    1.6271   -9.3502 H         1 UNK         0.3205 
    126 H126       31.7611    3.4712   -8.9975 H         1 UNK         0.0754 
    127 H127       33.5307    4.2650  -10.5047 H         1 UNK         0.0769 
    128 H128       32.2396    3.5511  -11.4573 H         1 UNK         0.0769 
    129 H129       33.7400    2.6633  -11.1926 H         1 UNK         0.0769 
    130 H130       32.0450    1.4070   -7.2984 H         1 UNK         0.2981 
    131 H131       34.8822    1.1921   -6.4873 H         1 UNK         0.0541 
    132 H132       32.3473    3.4398   -5.8423 H         1 UNK         0.3459 
    133 H133       32.9925    4.0135   -4.3241 H         1 UNK         0.3459 
    134 H134       32.4072   -0.1546   -5.3034 H         1 UNK         0.0612 
    135 H135       34.0528   -0.4175   -4.7854 H         1 UNK         0.0612 
    136 H136       34.5298   -2.7226   -5.0745 H         1 UNK         0.0624 
    137 H137       34.3082   -3.6986   -6.4993 H         1 UNK         0.0624 
@<TRIPOS>BOND
     1    1    2 1    
     2    1   72 1    
     3    1   73 1    
     4    1   74 1    
     5    2    3 2    
     6    2    4 am   BACKBONE|DICT|INTERRES
     7    4    5 1    
     8    4   75 1    
     9    5    6 1    
    10    5   35 1    
    11    5   76 1    
    12    6    7 1    
    13    6   77 1    
    14    6   78 1    
    15    7    8 1    
    16    8    9 1    
    17    8   79 1    
    18    8   80 1    
    19    9   10 ar   
    20    9   14 ar   
    21   10   11 ar   
    22   10   81 1    
    23   11   12 ar   
    24   11   71 1    
    25   12   13 ar   
    26   12   82 1    
    27   13   14 ar   
    28   13   15 1    
    29   14   83 1    
    30   15   16 1    
    31   15   84 1    
    32   15   85 1    
    33   16   17 1    
    34   17   18 1    
    35   17   86 1    
    36   17   87 1    
    37   18   19 1    
    38   18   37 1    
    39   18   88 1    
    40   19   20 am   BACKBONE|DICT|INTERRES
    41   19   89 1    
    42   20   21 2    
    43   20   22 1    
    44   22   23 1    
    45   22   24 1    
    46   22   90 1    
    47   23   91 1    
    48   23   92 1    
    49   23   93 1    
    50   24   25 am   BACKBONE|DICT|INTERRES
    51   24   94 1    
    52   25   26 2    
    53   25   27 1    
    54   27   28 1    
    55   27   29 1    
    56   27   95 1    
    57   28   96 1    
    58   28   97 1    
    59   28   98 1    
    60   29   30 am   BACKBONE|DICT|INTERRES
    61   29   99 1    
    62   30   31 2    
    63   30   32 1    
    64   32   33 1    
    65   32   34 1    
    66   32  100 1    
    67   33  101 1    
    68   33  102 1    
    69   33  103 1    
    70   34   35 am   BACKBONE|DICT|INTERRES
    71   34  104 1    
    72   35   36 2    
    73   37   38 2    
    74   37   39 am   BACKBONE|DICT|INTERRES
    75   39   40 1    
    76   39  105 1    
    77   40   41 1    
    78   40   42 1    
    79   40  106 1    
    80   41  107 1    
    81   41  108 1    
    82   41  109 1    
    83   42   43 2    
    84   42   44 am   BACKBONE|DICT|INTERRES
    85   44   45 1    
    86   44  110 1    
    87   45   46 1    
    88   45   47 1    
    89   45  111 1    
    90   46  112 1    
    91   46  113 1    
    92   46  114 1    
    93   47   48 2    
    94   47   49 am   BACKBONE|DICT|INTERRES
    95   49   50 1    
    96   49  115 1    
    97   50   51 1    
    98   50   52 1    
    99   50  116 1    
   100   51  117 1    
   101   51  118 1    
   102   51  119 1    
   103   52   53 2    
   104   52   54 am   BACKBONE|DICT|INTERRES
   105   54   55 1    
   106   54  120 1    
   107   55   56 1    
   108   55   57 1    
   109   55  121 1    
   110   56  122 1    
   111   56  123 1    
   112   56  124 1    
   113   57   58 2    
   114   57   59 am   BACKBONE|DICT|INTERRES
   115   59   60 1    
   116   59  125 1    
   117   60   61 1    
   118   60   62 1    
   119   60  126 1    
   120   61  127 1    
   121   61  128 1    
   122   61  129 1    
   123   62   63 2    
   124   62   64 am   BACKBONE|DICT|INTERRES
   125   64   65 1    
   126   64  130 1    
   127   65   66 1    
   128   65   69 1    
   129   65  131 1    
   130   66   67 am   BACKBONE|DICT|INTERRES
   131   66   68 2    
   132   67  132 1    
   133   67  133 1    
   134   69   70 1    
   135   69  134 1    
   136   69  135 1    
   137   70   71 1    
   138   71  136 1    
   139   71  137 1    
@<TRIPOS>SUBSTRUCTURE
     1 UNK         1 GROUP             0       ****    0 ROOT    
