@<TRIPOS>MOLECULE
3R137
137   139    1
SMALL
USER_CHARGES


@<TRIPOS>ATOM
      1 CA         24.1537   -6.2179   -3.5150 C.3       0 UNK        -0.2020 
      2 C          25.2342   -5.1508   -3.5964 C.2       0 UNK         0.4855 
      3 O          25.1868   -4.3091   -4.4940 O.2       0 UNK        -0.5197 
      4 N          26.1939   -5.1751   -2.6570 N.am      1 UNK        -0.4892 
      5 CA         27.3432   -4.2627   -2.5477 C.3       1 UNK         0.0835 
      6 C6         28.4563   -4.5687   -3.6016 C.3       12 UNK        -0.0855 
      7 S7         29.7131   -5.7581   -3.0178 S.3       12 UNK        -0.2931 
      8 C8         30.6868   -4.8015   -1.7976 C.3       12 UNK         0.0378 
      9 C9         31.4560   -3.6245   -2.3918 C.ar      12 UNK        -0.0802 
     10 C10        32.8104   -3.7410   -2.7205 C.ar      12 UNK        -0.0944 
     11 C11        33.5247   -2.6338   -3.1946 C.ar      12 UNK        -0.0787 
     12 C12        32.8661   -1.4114   -3.3649 C.ar      12 UNK        -0.0862 
     13 C13        31.5093   -1.2797   -3.0579 C.ar      12 UNK        -0.0733 
     14 C14        30.8223   -2.3911   -2.5541 C.ar      12 UNK        -0.0832 
     15 C15        30.8113    0.0544   -3.3313 C.3       12 UNK         0.0240 
     16 S16        29.2660    0.2996   -2.3888 S.3       12 UNK        -0.2522 
     17 C17        28.4199    1.6505   -3.2655 C.3       12 UNK        -0.0967 
     18 CA         28.1641    1.4513   -4.7858 C.3       5 UNK         0.0660 
     19 N          27.5247    0.1802   -5.1593 N.am      5 UNK        -0.4015 
     20 C          27.4109   -0.2564   -6.4254 C.2       4 UNK         0.4946 
     21 O          27.9938    0.2697   -7.3733 O.2       4 UNK        -0.5353 
     22 CA         26.4789   -1.4455   -6.7260 C.3       4 UNK         0.0277 
     23 CB         27.2499   -2.7650   -6.8174 C.3       4 UNK        -0.1981 
     24 N          25.3825   -1.5829   -5.7713 N.am      4 UNK        -0.4209 
     25 C          24.3429   -0.7417   -5.7027 C.2       3 UNK         0.4942 
     26 O          24.1832    0.2083   -6.4683 O.2       3 UNK        -0.5208 
     27 CA         23.3428   -0.9674   -4.5584 C.3       3 UNK         0.0250 
     28 CB         22.3339   -2.0692   -4.9190 C.3       3 UNK        -0.1990 
     29 N          24.0149   -1.2994   -3.3007 N.am      3 UNK        -0.4232 
     30 C          24.8083   -0.4550   -2.6264 C.2       2 UNK         0.4993 
     31 O          25.0068    0.7146   -2.9612 O.2       2 UNK        -0.5286 
     32 CA         25.5461   -1.0307   -1.4040 C.3       2 UNK         0.0209 
     33 CB         24.6580   -0.9571   -0.1519 C.3       2 UNK        -0.1931 
     34 N          26.0298   -2.4079   -1.5869 N.am      2 UNK        -0.4546 
     35 C          26.8951   -2.7827   -2.5418 C.2       1 UNK         0.5154 
     36 O          27.2996   -2.0152   -3.4114 O.2       1 UNK        -0.5181 
     37 C          27.3470    2.6428   -5.3150 C.2       5 UNK         0.5014 
     38 O          27.9213    3.5353   -5.9382 O.2       5 UNK        -0.5248 
     39 N          26.0250    2.6268   -5.0786 N.am      6 UNK        -0.4434 
     40 CA         25.0860    3.6587   -5.5337 C.3       6 UNK         0.0363 
     41 CB         23.6925    3.3877   -4.9448 C.3       6 UNK        -0.1936 
     42 C          25.0211    3.7862   -7.0665 C.2       6 UNK         0.5081 
     43 O          24.9457    4.9025   -7.5802 O.2       6 UNK        -0.5248 
     44 N          25.0941    2.6474   -7.7677 N.am      7 UNK        -0.4718 
     45 CA         25.1905    2.5670   -9.2279 C.3       7 UNK         0.0273 
     46 CB         24.7970    1.1475   -9.6694 C.3       7 UNK        -0.1935 
     47 C          26.5842    2.9237   -9.7834 C.2       7 UNK         0.5018 
     48 O          26.7069    3.0908  -10.9975 O.2       7 UNK        -0.5186 
     49 N          27.6018    3.0015   -8.9097 N.am      8 UNK        -0.4240 
     50 CA         29.0306    3.1770   -9.2067 C.3       8 UNK         0.0235 
     51 CB         29.3058    4.5821   -9.7831 C.3       8 UNK        -0.2000 
     52 C          29.5978    2.0385  -10.0802 C.2       8 UNK         0.4941 
     53 O          30.4046    2.2875  -10.9784 O.2       8 UNK        -0.5273 
     54 N          29.1425    0.8109   -9.8054 N.am      9 UNK        -0.4262 
     55 CA         29.4726   -0.4061  -10.5416 C.3       9 UNK         0.0264 
     56 CB         28.1795   -1.2015  -10.7884 C.3       9 UNK        -0.1955 
     57 C          30.4970   -1.2733   -9.7961 C.2       9 UNK         0.5031 
     58 O          31.3287   -1.9014  -10.4534 O.2       9 UNK        -0.5390 
     59 N          30.4254   -1.3160   -8.4572 N.am      10 UNK        -0.4204 
     60 CA         31.3529   -2.0886   -7.6277 C.3       10 UNK         0.0237 
     61 CB         30.6791   -2.5282   -6.3175 C.3       10 UNK        -0.1985 
     62 C          32.6269   -1.2846   -7.3448 C.2       10 UNK         0.4970 
     63 O          32.5377   -0.1793   -6.8052 O.2       10 UNK        -0.4914 
     64 N          33.7747   -1.8838   -7.6845 N.am      11 UNK        -0.4285 
     65 CA         35.1345   -1.3756   -7.4447 C.3       11 UNK         0.1007 
     66 C          35.4167   -0.0050   -8.1367 C.2       11 UNK         0.5703 
     67 N          36.3432    0.7996   -7.6308 N.am      11 UNK        -0.7361 
     68 O          34.8431    0.3127   -9.1772 O.2       11 UNK        -0.4986 
     69 C69        35.5282   -1.4350   -5.9386 C.3       12 UNK        -0.0947 
     70 S70        35.3590   -3.1122   -5.2325 S.3       12 UNK        -0.2240 
     71 C71        35.0155   -2.7512   -3.4827 C.3       12 UNK         0.0194 
     72 H72        24.1506   -6.8154   -4.4262 H         1 UNK         0.0906 
     73 H73        24.3029   -6.8888   -2.6694 H         1 UNK         0.0906 
     74 H74        23.1744   -5.7516   -3.4108 H         1 UNK         0.0906 
     75 H75        26.1568   -5.8958   -1.9488 H         1 UNK         0.3140 
     76 H76        27.7601   -4.4226   -1.5531 H         1 UNK         0.1085 
     77 H77        28.9925   -3.6844   -3.9400 H         1 UNK         0.0836 
     78 H78        28.0119   -4.9735   -4.5118 H         1 UNK         0.0836 
     79 H79        31.3869   -5.4848   -1.3144 H         1 UNK         0.0731 
     80 H80        30.0318   -4.4474   -1.0010 H         1 UNK         0.0731 
     81 H81        33.3156   -4.6875   -2.5839 H         1 UNK         0.1312 
     82 H82        33.4081   -0.5559   -3.7417 H         1 UNK         0.1406 
     83 H83        29.7788   -2.3090   -2.2942 H         1 UNK         0.1631 
     84 H84        30.6061    0.0965   -4.3993 H         1 UNK         0.0717 
     85 H85        31.4855    0.8827   -3.1088 H         1 UNK         0.0717 
     86 H86        27.4771    1.8105   -2.7388 H         1 UNK         0.0934 
     87 H87        29.0037    2.5591   -3.1042 H         1 UNK         0.0934 
     88 H88        29.1272    1.4894   -5.2971 H         1 UNK         0.0739 
     89 H89        27.1531   -0.3964   -4.4085 H         1 UNK         0.3093 
     90 H90        26.0356   -1.2637   -7.7064 H         1 UNK         0.0818 
     91 H91        27.7513   -2.9926   -5.8794 H         1 UNK         0.0819 
     92 H92        26.5863   -3.5980   -7.0503 H         1 UNK         0.0819 
     93 H93        28.0029   -2.7230   -7.6040 H         1 UNK         0.0819 
     94 H94        25.4400   -2.3577   -5.1163 H         1 UNK         0.3041 
     95 H95        22.7926   -0.0356   -4.4105 H         1 UNK         0.0784 
     96 H96        21.8080   -1.8264   -5.8434 H         1 UNK         0.0793 
     97 H97        22.8204   -3.0343   -5.0654 H         1 UNK         0.0793 
     98 H98        21.5804   -2.1875   -4.1401 H         1 UNK         0.0793 
     99 H99        23.9437   -2.2536   -2.9786 H         1 UNK         0.3024 
    100 H100       26.4216   -0.3986   -1.2381 H         1 UNK         0.1171 
    101 H101       25.2071   -1.2532    0.7421 H         1 UNK         0.0786 
    102 H102       24.3004    0.0605    0.0130 H         1 UNK         0.0786 
    103 H103       23.7817   -1.6008   -0.2379 H         1 UNK         0.0786 
    104 H104       25.7094   -3.0986   -0.9232 H         1 UNK         0.2977 
    105 H105       25.6362    1.8674   -4.5259 H         1 UNK         0.3127 
    106 H106       25.4386    4.6149   -5.1413 H         1 UNK         0.0770 
    107 H107       23.2823    2.4399   -5.2933 H         1 UNK         0.0814 
    108 H108       22.9899    4.1714   -5.2309 H         1 UNK         0.0814 
    109 H109       23.7208    3.3583   -3.8554 H         1 UNK         0.0814 
    110 H110       25.0499    1.7663   -7.2614 H         1 UNK         0.2983 
    111 H111       24.4770    3.2721   -9.6600 H         1 UNK         0.0947 
    112 H112       24.7786    1.0663  -10.7571 H         1 UNK         0.0806 
    113 H113       23.8049    0.8773   -9.3071 H         1 UNK         0.0806 
    114 H114       25.5036    0.4041   -9.3005 H         1 UNK         0.0806 
    115 H115       27.3864    2.8695   -7.9285 H         1 UNK         0.3000 
    116 H116       29.5482    3.1068   -8.2487 H         1 UNK         0.0850 
    117 H117       30.3771    4.7606   -9.8816 H         1 UNK         0.0810 
    118 H118       28.9065    5.3607   -9.1331 H         1 UNK         0.0810 
    119 H119       28.8632    4.7091  -10.7714 H         1 UNK         0.0810 
    120 H120       28.5372    0.6996   -8.9916 H         1 UNK         0.3040 
    121 H121       29.8999   -0.1483  -11.5131 H         1 UNK         0.0766 
    122 H122       27.4655   -0.6207  -11.3729 H         1 UNK         0.0812 
    123 H123       27.6926   -1.4854   -9.8548 H         1 UNK         0.0812 
    124 H124       28.3840   -2.1180  -11.3435 H         1 UNK         0.0812 
    125 H125       29.7492   -0.7310   -7.9803 H         1 UNK         0.3205 
    126 H126       31.6305   -3.0018   -8.1594 H         1 UNK         0.0754 
    127 H127       31.4151   -2.8947   -5.6000 H         1 UNK         0.0769 
    128 H128       29.9886   -3.3509   -6.4925 H         1 UNK         0.0769 
    129 H129       30.1343   -1.7147   -5.8394 H         1 UNK         0.0769 
    130 H130       33.7299   -2.7777   -8.1506 H         1 UNK         0.2981 
    131 H131       35.7883   -2.0725   -7.9698 H         1 UNK         0.0541 
    132 H132       36.5382    1.6724   -8.0958 H         1 UNK         0.3459 
    133 H133       36.8464    0.5545   -6.7932 H         1 UNK         0.3459 
    134 H134       34.9295   -0.7265   -5.3676 H         1 UNK         0.0612 
    135 H135       36.5692   -1.1418   -5.7978 H         1 UNK         0.0612 
    136 H136       35.5335   -1.8391   -3.1824 H         1 UNK         0.0624 
    137 H137       35.4446   -3.5511   -2.8774 H         1 UNK         0.0624 
@<TRIPOS>BOND
     1    1    2 1    
     2    1   72 1    
     3    1   73 1    
     4    1   74 1    
     5    2    3 2    
     6    2    4 am   BACKBONE|DICT|INTERRES
     7    4    5 1    
     8    4   75 1    
     9    5    6 1    
    10    5   35 1    
    11    5   76 1    
    12    6    7 1    
    13    6   77 1    
    14    6   78 1    
    15    7    8 1    
    16    8    9 1    
    17    8   79 1    
    18    8   80 1    
    19    9   10 ar   
    20    9   14 ar   
    21   10   11 ar   
    22   10   81 1    
    23   11   12 ar   
    24   11   71 1    
    25   12   13 ar   
    26   12   82 1    
    27   13   14 ar   
    28   13   15 1    
    29   14   83 1    
    30   15   16 1    
    31   15   84 1    
    32   15   85 1    
    33   16   17 1    
    34   17   18 1    
    35   17   86 1    
    36   17   87 1    
    37   18   19 1    
    38   18   37 1    
    39   18   88 1    
    40   19   20 am   BACKBONE|DICT|INTERRES
    41   19   89 1    
    42   20   21 2    
    43   20   22 1    
    44   22   23 1    
    45   22   24 1    
    46   22   90 1    
    47   23   91 1    
    48   23   92 1    
    49   23   93 1    
    50   24   25 am   BACKBONE|DICT|INTERRES
    51   24   94 1    
    52   25   26 2    
    53   25   27 1    
    54   27   28 1    
    55   27   29 1    
    56   27   95 1    
    57   28   96 1    
    58   28   97 1    
    59   28   98 1    
    60   29   30 am   BACKBONE|DICT|INTERRES
    61   29   99 1    
    62   30   31 2    
    63   30   32 1    
    64   32   33 1    
    65   32   34 1    
    66   32  100 1    
    67   33  101 1    
    68   33  102 1    
    69   33  103 1    
    70   34   35 am   BACKBONE|DICT|INTERRES
    71   34  104 1    
    72   35   36 2    
    73   37   38 2    
    74   37   39 am   BACKBONE|DICT|INTERRES
    75   39   40 1    
    76   39  105 1    
    77   40   41 1    
    78   40   42 1    
    79   40  106 1    
    80   41  107 1    
    81   41  108 1    
    82   41  109 1    
    83   42   43 2    
    84   42   44 am   BACKBONE|DICT|INTERRES
    85   44   45 1    
    86   44  110 1    
    87   45   46 1    
    88   45   47 1    
    89   45  111 1    
    90   46  112 1    
    91   46  113 1    
    92   46  114 1    
    93   47   48 2    
    94   47   49 am   BACKBONE|DICT|INTERRES
    95   49   50 1    
    96   49  115 1    
    97   50   51 1    
    98   50   52 1    
    99   50  116 1    
   100   51  117 1    
   101   51  118 1    
   102   51  119 1    
   103   52   53 2    
   104   52   54 am   BACKBONE|DICT|INTERRES
   105   54   55 1    
   106   54  120 1    
   107   55   56 1    
   108   55   57 1    
   109   55  121 1    
   110   56  122 1    
   111   56  123 1    
   112   56  124 1    
   113   57   58 2    
   114   57   59 am   BACKBONE|DICT|INTERRES
   115   59   60 1    
   116   59  125 1    
   117   60   61 1    
   118   60   62 1    
   119   60  126 1    
   120   61  127 1    
   121   61  128 1    
   122   61  129 1    
   123   62   63 2    
   124   62   64 am   BACKBONE|DICT|INTERRES
   125   64   65 1    
   126   64  130 1    
   127   65   66 1    
   128   65   69 1    
   129   65  131 1    
   130   66   67 am   BACKBONE|DICT|INTERRES
   131   66   68 2    
   132   67  132 1    
   133   67  133 1    
   134   69   70 1    
   135   69  134 1    
   136   69  135 1    
   137   70   71 1    
   138   71  136 1    
   139   71  137 1    
@<TRIPOS>SUBSTRUCTURE
     1 UNK         1 GROUP             0       ****    0 ROOT    
