@<TRIPOS>MOLECULE
3R137
137   139    1
SMALL
USER_CHARGES


@<TRIPOS>ATOM
      1 CA         26.3576   -9.1161   -1.4792 C.3       0 UNK        -0.2020 
      2 C          26.3124   -7.8113   -0.6983 C.2       0 UNK         0.4855 
      3 O          25.4370   -7.6360    0.1495 O.2       0 UNK        -0.5197 
      4 N          27.2510   -6.8957   -0.9748 N.am      1 UNK        -0.4892 
      5 CA         27.3437   -5.5735   -0.3400 C.3       1 UNK         0.0835 
      6 C6         28.7282   -4.9266   -0.6067 C.3       12 UNK        -0.0855 
      7 S7         29.1849   -3.6934    0.6560 S.3       12 UNK        -0.2931 
      8 C8         30.8518   -3.2190    0.0996 C.3       12 UNK         0.0378 
      9 C9         30.8181   -2.3459   -1.1480 C.ar      12 UNK        -0.0802 
     10 C10        31.1455   -2.8823   -2.3972 C.ar      12 UNK        -0.0944 
     11 C11        31.1631   -2.0691   -3.5338 C.ar      12 UNK        -0.0787 
     12 C12        30.8328   -0.7173   -3.4157 C.ar      12 UNK        -0.0862 
     13 C13        30.5193   -0.1583   -2.1721 C.ar      12 UNK        -0.0733 
     14 C14        30.5068   -0.9859   -1.0434 C.ar      12 UNK        -0.0832 
     15 C15        30.2766    1.3425   -2.0102 C.3       12 UNK         0.0240 
     16 S16        29.0506    2.0422   -3.1659 S.3       12 UNK        -0.2522 
     17 C17        30.0930    2.5079   -4.6038 C.3       12 UNK        -0.0967 
     18 CA         29.4488    2.1845   -5.9815 C.3       5 UNK         0.0660 
     19 N          28.7428    0.9018   -5.9834 N.am      5 UNK        -0.4015 
     20 C          28.2072    0.2895   -7.0467 C.2       4 UNK         0.4946 
     21 O          28.3685    0.6548   -8.2101 O.2       4 UNK        -0.5353 
     22 CA         27.2902   -0.9122   -6.7642 C.3       4 UNK         0.0277 
     23 CB         28.0468   -2.2355   -6.9402 C.3       4 UNK        -0.1981 
     24 N          26.6769   -0.8752   -5.4347 N.am      4 UNK        -0.4209 
     25 C          25.8086    0.0465   -5.0003 C.2       3 UNK         0.4942 
     26 O          25.4187    0.9843   -5.6991 O.2       3 UNK        -0.5208 
     27 CA         25.3294   -0.0914   -3.5384 C.3       3 UNK         0.0250 
     28 CB         24.2556    0.9487   -3.1698 C.3       3 UNK        -0.1990 
     29 N          24.8262   -1.4322   -3.2118 N.am      3 UNK        -0.4232 
     30 C          25.5811   -2.5255   -3.0406 C.2       2 UNK         0.4993 
     31 O          26.8054   -2.5375   -3.1988 O.2       2 UNK        -0.5286 
     32 CA         24.8451   -3.8301   -2.6911 C.3       2 UNK         0.0209 
     33 CB         24.2877   -4.4904   -3.9632 C.3       2 UNK        -0.1931 
     34 N          25.7517   -4.7693   -2.0295 N.am      2 UNK        -0.4546 
     35 C          26.1963   -4.6328   -0.7721 C.2       1 UNK         0.5154 
     36 O          25.7367   -3.8139    0.0267 O.2       1 UNK        -0.5181 
     37 C          28.5421    3.3400   -6.4501 C.2       5 UNK         0.5014 
     38 O          28.9430    4.1049   -7.3275 O.2       5 UNK        -0.5248 
     39 N          27.3351    3.4376   -5.8728 N.am      6 UNK        -0.4434 
     40 CA         26.3375    4.4615   -6.1978 C.3       6 UNK         0.0363 
     41 CB         25.2334    4.4689   -5.1290 C.3       6 UNK        -0.1936 
     42 C          25.7355    4.2675   -7.5977 C.2       6 UNK         0.5081 
     43 O          25.4669    5.2526   -8.2855 O.2       6 UNK        -0.5248 
     44 N          25.5679    3.0025   -8.0063 N.am      7 UNK        -0.4718 
     45 CA         25.1447    2.6146   -9.3546 C.3       7 UNK         0.0273 
     46 CB         24.6943    1.1450   -9.3278 C.3       7 UNK        -0.1935 
     47 C          26.2361    2.8134  -10.4259 C.2       7 UNK         0.5018 
     48 O          25.9101    2.7862  -11.6132 O.2       7 UNK        -0.5186 
     49 N          27.4985    2.9729   -9.9946 N.am      8 UNK        -0.4240 
     50 CA         28.7277    3.0118  -10.7985 C.3       8 UNK         0.0235 
     51 CB         28.7704    4.2726  -11.6876 C.3       8 UNK        -0.2000 
     52 C          28.9547    1.7038  -11.5848 C.2       8 UNK         0.4941 
     53 O          29.4274    1.7358  -12.7228 O.2       8 UNK        -0.5273 
     54 N          28.5922    0.5778  -10.9595 N.am      9 UNK        -0.4262 
     55 CA         28.6373   -0.7654  -11.5305 C.3       9 UNK         0.0264 
     56 CB         27.3856   -1.5367  -11.0792 C.3       9 UNK        -0.1955 
     57 C          29.9085   -1.5270  -11.1292 C.2       9 UNK         0.5031 
     58 O          30.3582   -2.3744  -11.9024 O.2       9 UNK        -0.5390 
     59 N          30.4681   -1.2303   -9.9488 N.am      10 UNK        -0.4204 
     60 CA         31.6763   -1.8577   -9.4160 C.3       10 UNK         0.0237 
     61 CB         31.3575   -3.2622   -8.8622 C.3       10 UNK        -0.1985 
     62 C          32.2766   -0.9697   -8.3226 C.2       10 UNK         0.4970 
     63 O          31.5920   -0.0826   -7.8092 O.2       10 UNK        -0.4914 
     64 N          33.5367   -1.2571   -7.9744 N.am      11 UNK        -0.4285 
     65 CA         34.3106   -0.6238   -6.8903 C.3       11 UNK         0.1007 
     66 C          34.6841    0.8713   -7.1351 C.2       11 UNK         0.5703 
     67 N          34.5807    1.3883   -8.3538 N.am      11 UNK        -0.7361 
     68 O          35.1086    1.5682   -6.2162 O.2       11 UNK        -0.4986 
     69 C69        33.6951   -0.8602   -5.4798 C.3       12 UNK        -0.0947 
     70 S70        33.3737   -2.6224   -5.1101 S.3       12 UNK        -0.2240 
     71 C71        31.5659   -2.6421   -4.8854 C.3       12 UNK         0.0194 
     72 H72        27.1852   -9.1406   -2.1879 H         1 UNK         0.0906 
     73 H73        26.4716   -9.9579   -0.7966 H         1 UNK         0.0906 
     74 H74        25.4307   -9.2522   -2.0357 H         1 UNK         0.0906 
     75 H75        27.9512   -7.1016   -1.6739 H         1 UNK         0.3140 
     76 H76        27.2390   -5.7312    0.7363 H         1 UNK         0.1085 
     77 H77        29.5059   -5.6922   -0.5957 H         1 UNK         0.0836 
     78 H78        28.7691   -4.4691   -1.5979 H         1 UNK         0.0836 
     79 H79        31.4502   -4.1158   -0.0694 H         1 UNK         0.0731 
     80 H80        31.3473   -2.6748    0.9050 H         1 UNK         0.0731 
     81 H81        31.4070   -3.9281   -2.4837 H         1 UNK         0.1312 
     82 H82        30.8484   -0.1034   -4.2999 H         1 UNK         0.1406 
     83 H83        30.2762   -0.5703   -0.0717 H         1 UNK         0.1631 
     84 H84        31.2245    1.8726   -2.1118 H         1 UNK         0.0717 
     85 H85        29.9241    1.5545   -0.9997 H         1 UNK         0.0717 
     86 H86        30.3372    3.5694   -4.5203 H         1 UNK         0.0934 
     87 H87        31.0606    2.0121   -4.5353 H         1 UNK         0.0934 
     88 H88        30.2540    2.1038   -6.7153 H         1 UNK         0.0739 
     89 H89        28.5474    0.5186   -5.0701 H         1 UNK         0.3093 
     90 H90        26.4832   -0.8848   -7.4975 H         1 UNK         0.0818 
     91 H91        28.8307   -2.3537   -6.1931 H         1 UNK         0.0819 
     92 H92        27.3744   -3.0892   -6.8550 H         1 UNK         0.0819 
     93 H93        28.5127   -2.2898   -7.9241 H         1 UNK         0.0819 
     94 H94        26.9401   -1.6047   -4.7735 H         1 UNK         0.3041 
     95 H95        26.2005    0.1022   -2.9081 H         1 UNK         0.0784 
     96 H96        24.6354    1.9628   -3.2968 H         1 UNK         0.0793 
     97 H97        23.3665    0.8507   -3.7941 H         1 UNK         0.0793 
     98 H98        23.9489    0.8529   -2.1281 H         1 UNK         0.0793 
     99 H99        23.8242   -1.5168   -3.1156 H         1 UNK         0.3024 
    100 H100       24.0201   -3.5998   -2.0127 H         1 UNK         0.1171 
    101 H101       23.5767   -3.8349   -4.4678 H         1 UNK         0.0786 
    102 H102       23.7619   -5.4170   -3.7312 H         1 UNK         0.0786 
    103 H103       25.0787   -4.7232   -4.6777 H         1 UNK         0.0786 
    104 H104       26.1977   -5.4589   -2.6157 H         1 UNK         0.2977 
    105 H105       27.0665    2.7450   -5.1881 H         1 UNK         0.3127 
    106 H106       26.8355    5.4335   -6.1805 H         1 UNK         0.0770 
    107 H107       24.6636    3.5394   -5.1307 H         1 UNK         0.0814 
    108 H108       24.5270    5.2803   -5.3086 H         1 UNK         0.0814 
    109 H109       25.6447    4.6125   -4.1298 H         1 UNK         0.0814 
    110 H110       25.7436    2.2556   -7.3415 H         1 UNK         0.2983 
    111 H111       24.2899    3.2329   -9.6373 H         1 UNK         0.0947 
    112 H112       24.2719    0.8496  -10.2891 H         1 UNK         0.0806 
    113 H113       23.9295    0.9736   -8.5699 H         1 UNK         0.0806 
    114 H114       25.5290    0.4752   -9.1229 H         1 UNK         0.0806 
    115 H115       27.6459    2.9670   -8.9935 H         1 UNK         0.3000 
    116 H116       29.5508    3.0818  -10.0855 H         1 UNK         0.0850 
    117 H117       29.7385    4.3701  -12.1802 H         1 UNK         0.0810 
    118 H118       28.6143    5.1766  -11.0990 H         1 UNK         0.0810 
    119 H119       28.0103    4.2444  -12.4689 H         1 UNK         0.0810 
    120 H120       28.2973    0.6510   -9.9856 H         1 UNK         0.3040 
    121 H121       28.6191   -0.7012  -12.6207 H         1 UNK         0.0766 
    122 H122       26.4751   -1.0444  -11.4212 H         1 UNK         0.0812 
    123 H123       27.3306   -1.6217   -9.9937 H         1 UNK         0.0812 
    124 H124       27.3806   -2.5481  -11.4880 H         1 UNK         0.0812 
    125 H125       30.0811   -0.4927   -9.3682 H         1 UNK         0.3205 
    126 H126       32.4089   -1.9419  -10.2217 H         1 UNK         0.0754 
    127 H127       32.2614   -3.7624   -8.5128 H         1 UNK         0.0769 
    128 H128       30.9127   -3.9045   -9.6223 H         1 UNK         0.0769 
    129 H129       30.6700   -3.2178   -8.0181 H         1 UNK         0.0769 
    130 H130       34.0162   -1.9986   -8.4637 H         1 UNK         0.2981 
    131 H131       35.2715   -1.1390   -6.8995 H         1 UNK         0.0541 
    132 H132       34.2454    0.8285   -9.1205 H         1 UNK         0.3459 
    133 H133       34.8362    2.3514   -8.5038 H         1 UNK         0.3459 
    134 H134       34.3677   -0.4908   -4.7040 H         1 UNK         0.0612 
    135 H135       32.7793   -0.2809   -5.3796 H         1 UNK         0.0612 
    136 H136       31.2093   -3.6694   -4.9718 H         1 UNK         0.0624 
    137 H137       31.0965   -2.0843   -5.6961 H         1 UNK         0.0624 
@<TRIPOS>BOND
     1    1    2 1    
     2    1   72 1    
     3    1   73 1    
     4    1   74 1    
     5    2    3 2    
     6    2    4 am   BACKBONE|DICT|INTERRES
     7    4    5 1    
     8    4   75 1    
     9    5    6 1    
    10    5   35 1    
    11    5   76 1    
    12    6    7 1    
    13    6   77 1    
    14    6   78 1    
    15    7    8 1    
    16    8    9 1    
    17    8   79 1    
    18    8   80 1    
    19    9   10 ar   
    20    9   14 ar   
    21   10   11 ar   
    22   10   81 1    
    23   11   12 ar   
    24   11   71 1    
    25   12   13 ar   
    26   12   82 1    
    27   13   14 ar   
    28   13   15 1    
    29   14   83 1    
    30   15   16 1    
    31   15   84 1    
    32   15   85 1    
    33   16   17 1    
    34   17   18 1    
    35   17   86 1    
    36   17   87 1    
    37   18   19 1    
    38   18   37 1    
    39   18   88 1    
    40   19   20 am   BACKBONE|DICT|INTERRES
    41   19   89 1    
    42   20   21 2    
    43   20   22 1    
    44   22   23 1    
    45   22   24 1    
    46   22   90 1    
    47   23   91 1    
    48   23   92 1    
    49   23   93 1    
    50   24   25 am   BACKBONE|DICT|INTERRES
    51   24   94 1    
    52   25   26 2    
    53   25   27 1    
    54   27   28 1    
    55   27   29 1    
    56   27   95 1    
    57   28   96 1    
    58   28   97 1    
    59   28   98 1    
    60   29   30 am   BACKBONE|DICT|INTERRES
    61   29   99 1    
    62   30   31 2    
    63   30   32 1    
    64   32   33 1    
    65   32   34 1    
    66   32  100 1    
    67   33  101 1    
    68   33  102 1    
    69   33  103 1    
    70   34   35 am   BACKBONE|DICT|INTERRES
    71   34  104 1    
    72   35   36 2    
    73   37   38 2    
    74   37   39 am   BACKBONE|DICT|INTERRES
    75   39   40 1    
    76   39  105 1    
    77   40   41 1    
    78   40   42 1    
    79   40  106 1    
    80   41  107 1    
    81   41  108 1    
    82   41  109 1    
    83   42   43 2    
    84   42   44 am   BACKBONE|DICT|INTERRES
    85   44   45 1    
    86   44  110 1    
    87   45   46 1    
    88   45   47 1    
    89   45  111 1    
    90   46  112 1    
    91   46  113 1    
    92   46  114 1    
    93   47   48 2    
    94   47   49 am   BACKBONE|DICT|INTERRES
    95   49   50 1    
    96   49  115 1    
    97   50   51 1    
    98   50   52 1    
    99   50  116 1    
   100   51  117 1    
   101   51  118 1    
   102   51  119 1    
   103   52   53 2    
   104   52   54 am   BACKBONE|DICT|INTERRES
   105   54   55 1    
   106   54  120 1    
   107   55   56 1    
   108   55   57 1    
   109   55  121 1    
   110   56  122 1    
   111   56  123 1    
   112   56  124 1    
   113   57   58 2    
   114   57   59 am   BACKBONE|DICT|INTERRES
   115   59   60 1    
   116   59  125 1    
   117   60   61 1    
   118   60   62 1    
   119   60  126 1    
   120   61  127 1    
   121   61  128 1    
   122   61  129 1    
   123   62   63 2    
   124   62   64 am   BACKBONE|DICT|INTERRES
   125   64   65 1    
   126   64  130 1    
   127   65   66 1    
   128   65   69 1    
   129   65  131 1    
   130   66   67 am   BACKBONE|DICT|INTERRES
   131   66   68 2    
   132   67  132 1    
   133   67  133 1    
   134   69   70 1    
   135   69  134 1    
   136   69  135 1    
   137   70   71 1    
   138   71  136 1    
   139   71  137 1    
@<TRIPOS>SUBSTRUCTURE
     1 UNK         1 GROUP             0       ****    0 ROOT    
