@<TRIPOS>MOLECULE
3R137
137   139    1
SMALL
USER_CHARGES


@<TRIPOS>ATOM
      1 CA         24.0741   -2.2347    1.5326 C.3       0 UNK        -0.2020 
      2 C          25.0190   -1.8095    0.4189 C.2       0 UNK         0.4855 
      3 O          25.3286   -0.6244    0.2975 O.2       0 UNK        -0.5197 
      4 N          25.4787   -2.7671   -0.3972 N.am      1 UNK        -0.4892 
      5 CA         26.4102   -2.5411   -1.5117 C.3       1 UNK         0.0835 
      6 C6         27.0981   -3.8530   -1.9650 C.3       12 UNK        -0.0855 
      7 S7         28.1109   -4.5881   -0.6378 S.3       12 UNK        -0.2931 
      8 C8         29.7159   -4.8317   -1.4793 C.3       12 UNK         0.0378 
      9 C9         30.4763   -3.5596   -1.8658 C.ar      12 UNK        -0.0802 
     10 C10        31.4735   -3.6542   -2.8415 C.ar      12 UNK        -0.0944 
     11 C11        32.2338   -2.5387   -3.2041 C.ar      12 UNK        -0.0787 
     12 C12        31.9913   -1.3117   -2.5808 C.ar      12 UNK        -0.0862 
     13 C13        30.9732   -1.1864   -1.6308 C.ar      12 UNK        -0.0733 
     14 C14        30.2369   -2.3177   -1.2624 C.ar      12 UNK        -0.0832 
     15 C15        30.6493    0.1669   -1.0023 C.3       12 UNK         0.0240 
     16 S16        30.4248    1.5192   -2.2153 S.3       12 UNK        -0.2522 
     17 C17        29.3361    0.7731   -3.4789 C.3       12 UNK        -0.0967 
     18 CA         30.0572    0.6557   -4.8588 C.3       5 UNK         0.0660 
     19 N          29.7043   -0.5873   -5.5440 N.am      5 UNK        -0.4015 
     20 C          28.5062   -0.8977   -6.0525 C.2       4 UNK         0.4946 
     21 O          27.5686   -0.0982   -6.1355 O.2       4 UNK        -0.5353 
     22 CA         28.3088   -2.3443   -6.5329 C.3       4 UNK         0.0277 
     23 CB         29.2690   -3.3619   -5.8784 C.3       4 UNK        -0.1981 
     24 N          26.9278   -2.7271   -6.2529 N.am      4 UNK        -0.4209 
     25 C          26.1684   -3.5174   -7.0210 C.2       3 UNK         0.4942 
     26 O          26.5674   -4.0289   -8.0683 O.2       3 UNK        -0.5208 
     27 CA         24.7308   -3.8234   -6.5517 C.3       3 UNK         0.0250 
     28 CB         24.5536   -5.3317   -6.3020 C.3       3 UNK        -0.1990 
     29 N          24.3429   -3.1040   -5.3365 N.am      3 UNK        -0.4232 
     30 C          23.8960   -1.8418   -5.2927 C.2       2 UNK         0.4993 
     31 O          23.6962   -1.1506   -6.2910 O.2       2 UNK        -0.5286 
     32 CA         23.6364   -1.2464   -3.8948 C.3       2 UNK         0.0209 
     33 CB         22.1405   -1.3173   -3.5481 C.3       2 UNK        -0.1931 
     34 N          24.4122   -1.8736   -2.8152 N.am      2 UNK        -0.4546 
     35 C          25.7507   -1.8469   -2.7195 C.2       1 UNK         0.5154 
     36 O          26.4720   -1.3243   -3.5647 O.2       1 UNK        -0.5181 
     37 C          29.8861    1.8977   -5.7636 C.2       5 UNK         0.5014 
     38 O          29.9374    1.7878   -6.9916 O.2       5 UNK        -0.5248 
     39 N          29.6597    3.0616   -5.1419 N.am      6 UNK        -0.4434 
     40 CA         29.2794    4.3088   -5.8085 C.3       6 UNK         0.0363 
     41 CB         29.4567    5.4751   -4.8229 C.3       6 UNK        -0.1936 
     42 C          27.8418    4.2881   -6.3675 C.2       6 UNK         0.5081 
     43 O          27.5146    5.1412   -7.1916 O.2       6 UNK        -0.5248 
     44 N          27.0115    3.3331   -5.9182 N.am      7 UNK        -0.4718 
     45 CA         25.6374    3.1280   -6.3814 C.3       7 UNK         0.0273 
     46 CB         24.9044    2.1663   -5.4314 C.3       7 UNK        -0.1935 
     47 C          25.5932    2.6262   -7.8329 C.2       7 UNK         0.5018 
     48 O          24.9221    3.2401   -8.6636 O.2       7 UNK        -0.5186 
     49 N          26.3399    1.5509   -8.1211 N.am      8 UNK        -0.4240 
     50 CA         26.5565    1.0543   -9.4835 C.3       8 UNK         0.0235 
     51 CB         26.9323   -0.4339   -9.4329 C.3       8 UNK        -0.2000 
     52 C          27.6496    1.8424  -10.2258 C.2       8 UNK         0.4941 
     53 O          27.6728    1.8108  -11.4565 O.2       8 UNK        -0.5273 
     54 N          28.5397    2.5028   -9.4678 N.am      9 UNK        -0.4262 
     55 CA         29.7559    3.1970   -9.9049 C.3       9 UNK         0.0264 
     56 CB         29.4270    4.3911  -10.8261 C.3       9 UNK        -0.1955 
     57 C          30.7877    2.2207  -10.5015 C.2       9 UNK         0.5031 
     58 O          31.4488    2.5488  -11.4894 O.2       9 UNK        -0.5390 
     59 N          30.9010    1.0338   -9.8919 N.am      10 UNK        -0.4204 
     60 CA         31.7621   -0.0650  -10.3172 C.3       10 UNK         0.0237 
     61 CB         31.1888   -0.7399  -11.5793 C.3       10 UNK        -0.1985 
     62 C          31.8771   -1.0820   -9.1781 C.2       10 UNK         0.4970 
     63 O          30.9222   -1.2545   -8.4185 O.2       10 UNK        -0.4914 
     64 N          33.0267   -1.7576   -9.1204 N.am      11 UNK        -0.4285 
     65 CA         33.3545   -2.8527   -8.2004 C.3       11 UNK         0.1007 
     66 C          34.1753   -3.9300   -8.9551 C.2       11 UNK         0.5703 
     67 N          34.1381   -5.1725   -8.4938 N.am      11 UNK        -0.7361 
     68 O          34.8628   -3.6492   -9.9368 O.2       11 UNK        -0.4986 
     69 C69        34.1153   -2.3443   -6.9439 C.3       12 UNK        -0.0947 
     70 S70        32.9876   -1.6197   -5.7100 S.3       12 UNK        -0.2240 
     71 C71        33.3228   -2.6673   -4.2594 C.3       12 UNK         0.0194 
     72 H72        23.8888   -3.3087    1.5238 H         1 UNK         0.0906 
     73 H73        24.4959   -1.9720    2.5024 H         1 UNK         0.0906 
     74 H74        23.1169   -1.7244    1.4281 H         1 UNK         0.0906 
     75 H75        25.2184   -3.7300   -0.2334 H         1 UNK         0.3140 
     76 H76        27.1855   -1.8549   -1.1646 H         1 UNK         0.1085 
     77 H77        26.3587   -4.5896   -2.2851 H         1 UNK         0.0836 
     78 H78        27.7359   -3.6703   -2.8324 H         1 UNK         0.0836 
     79 H79        29.5451   -5.4424   -2.3676 H         1 UNK         0.0731 
     80 H80        30.3564   -5.4211   -0.8220 H         1 UNK         0.0731 
     81 H81        31.6668   -4.6081   -3.3136 H         1 UNK         0.1312 
     82 H82        32.5766   -0.4458   -2.8587 H         1 UNK         0.1406 
     83 H83        29.4770   -2.2245   -0.5003 H         1 UNK         0.1631 
     84 H84        31.4524    0.4393   -0.3165 H         1 UNK         0.0717 
     85 H85        29.7412    0.1013   -0.4009 H         1 UNK         0.0717 
     86 H86        29.0267   -0.2129   -3.1297 H         1 UNK         0.0934 
     87 H87        28.3985    1.3281   -3.5443 H         1 UNK         0.0934 
     88 H88        31.1309    0.5736   -4.6891 H         1 UNK         0.0739 
     89 H89        30.4467   -1.2693   -5.6116 H         1 UNK         0.3093 
     90 H90        28.4812   -2.3494   -7.6102 H         1 UNK         0.0818 
     91 H91        29.0264   -4.3818   -6.1771 H         1 UNK         0.0819 
     92 H92        30.3018   -3.1853   -6.1800 H         1 UNK         0.0819 
     93 H93        29.2243   -3.3160   -4.7897 H         1 UNK         0.0819 
     94 H94        26.5171   -2.2557   -5.4525 H         1 UNK         0.3041 
     95 H95        24.0599   -3.5317   -7.3626 H         1 UNK         0.0784 
     96 H96        24.7797   -5.9075   -7.2007 H         1 UNK         0.0793 
     97 H97        25.2136   -5.6906   -5.5112 H         1 UNK         0.0793 
     98 H98        23.5279   -5.5698   -6.0193 H         1 UNK         0.0793 
     99 H99        24.4629   -3.5934   -4.4620 H         1 UNK         0.3024 
    100 H100       23.9276   -0.1951   -3.9383 H         1 UNK         0.1171 
    101 H101       21.9264   -0.8111   -2.6065 H         1 UNK         0.0786 
    102 H102       21.5382   -0.8323   -4.3179 H         1 UNK         0.0786 
    103 H103       21.7934   -2.3479   -3.4639 H         1 UNK         0.0786 
    104 H104       23.8927   -2.3217   -2.0741 H         1 UNK         0.2977 
    105 H105       29.6768    3.0712   -4.1303 H         1 UNK         0.3127 
    106 H106       29.9557    4.4672   -6.6510 H         1 UNK         0.0770 
    107 H107       28.8068    5.3719   -3.9529 H         1 UNK         0.0814 
    108 H108       29.2157    6.4273   -5.2978 H         1 UNK         0.0814 
    109 H109       30.4855    5.5437   -4.4690 H         1 UNK         0.0814 
    110 H110       27.3709    2.6548   -5.2632 H         1 UNK         0.2983 
    111 H111       25.1232    4.0912   -6.3494 H         1 UNK         0.0947 
    112 H112       23.8826    1.9875   -5.7692 H         1 UNK         0.0806 
    113 H113       24.8459    2.5733   -4.4219 H         1 UNK         0.0806 
    114 H114       25.3992    1.1964   -5.3724 H         1 UNK         0.0806 
    115 H115       26.8201    1.0601   -7.3663 H         1 UNK         0.3000 
    116 H116       25.6267    1.1516  -10.0483 H         1 UNK         0.0850 
    117 H117       26.9556   -0.8634  -10.4351 H         1 UNK         0.0810 
    118 H118       26.2147   -1.0089   -8.8473 H         1 UNK         0.0810 
    119 H119       27.9213   -0.5786   -8.9986 H         1 UNK         0.0810 
    120 H120       28.4609    2.3930   -8.4638 H         1 UNK         0.3040 
    121 H121       30.2149    3.6028   -9.0028 H         1 UNK         0.0766 
    122 H122       29.0308    4.0668  -11.7886 H         1 UNK         0.0812 
    123 H123       30.3198    4.9840  -11.0277 H         1 UNK         0.0812 
    124 H124       28.6944    5.0544  -10.3660 H         1 UNK         0.0812 
    125 H125       30.3862    0.8652   -9.0321 H         1 UNK         0.3205 
    126 H126       32.7550    0.3352  -10.5336 H         1 UNK         0.0754 
    127 H127       31.8024   -1.5881  -11.8858 H         1 UNK         0.0769 
    128 H128       31.1520   -0.0500  -12.4225 H         1 UNK         0.0769 
    129 H129       30.1773   -1.1114  -11.4088 H         1 UNK         0.0769 
    130 H130       33.7309   -1.5978   -9.8284 H         1 UNK         0.2981 
    131 H131       32.4265   -3.3374   -7.8892 H         1 UNK         0.0541 
    132 H132       33.5858   -5.4142   -7.6859 H         1 UNK         0.3459 
    133 H133       34.6730   -5.8849   -8.9657 H         1 UNK         0.3459 
    134 H134       34.8609   -1.5966   -7.2195 H         1 UNK         0.0612 
    135 H135       34.6732   -3.1533   -6.4688 H         1 UNK         0.0612 
    136 H136       34.2847   -2.3876   -3.8279 H         1 UNK         0.0624 
    137 H137       33.4135   -3.7062   -4.5804 H         1 UNK         0.0624 
@<TRIPOS>BOND
     1    1    2 1    
     2    1   72 1    
     3    1   73 1    
     4    1   74 1    
     5    2    3 2    
     6    2    4 am   BACKBONE|DICT|INTERRES
     7    4    5 1    
     8    4   75 1    
     9    5    6 1    
    10    5   35 1    
    11    5   76 1    
    12    6    7 1    
    13    6   77 1    
    14    6   78 1    
    15    7    8 1    
    16    8    9 1    
    17    8   79 1    
    18    8   80 1    
    19    9   10 ar   
    20    9   14 ar   
    21   10   11 ar   
    22   10   81 1    
    23   11   12 ar   
    24   11   71 1    
    25   12   13 ar   
    26   12   82 1    
    27   13   14 ar   
    28   13   15 1    
    29   14   83 1    
    30   15   16 1    
    31   15   84 1    
    32   15   85 1    
    33   16   17 1    
    34   17   18 1    
    35   17   86 1    
    36   17   87 1    
    37   18   19 1    
    38   18   37 1    
    39   18   88 1    
    40   19   20 am   BACKBONE|DICT|INTERRES
    41   19   89 1    
    42   20   21 2    
    43   20   22 1    
    44   22   23 1    
    45   22   24 1    
    46   22   90 1    
    47   23   91 1    
    48   23   92 1    
    49   23   93 1    
    50   24   25 am   BACKBONE|DICT|INTERRES
    51   24   94 1    
    52   25   26 2    
    53   25   27 1    
    54   27   28 1    
    55   27   29 1    
    56   27   95 1    
    57   28   96 1    
    58   28   97 1    
    59   28   98 1    
    60   29   30 am   BACKBONE|DICT|INTERRES
    61   29   99 1    
    62   30   31 2    
    63   30   32 1    
    64   32   33 1    
    65   32   34 1    
    66   32  100 1    
    67   33  101 1    
    68   33  102 1    
    69   33  103 1    
    70   34   35 am   BACKBONE|DICT|INTERRES
    71   34  104 1    
    72   35   36 2    
    73   37   38 2    
    74   37   39 am   BACKBONE|DICT|INTERRES
    75   39   40 1    
    76   39  105 1    
    77   40   41 1    
    78   40   42 1    
    79   40  106 1    
    80   41  107 1    
    81   41  108 1    
    82   41  109 1    
    83   42   43 2    
    84   42   44 am   BACKBONE|DICT|INTERRES
    85   44   45 1    
    86   44  110 1    
    87   45   46 1    
    88   45   47 1    
    89   45  111 1    
    90   46  112 1    
    91   46  113 1    
    92   46  114 1    
    93   47   48 2    
    94   47   49 am   BACKBONE|DICT|INTERRES
    95   49   50 1    
    96   49  115 1    
    97   50   51 1    
    98   50   52 1    
    99   50  116 1    
   100   51  117 1    
   101   51  118 1    
   102   51  119 1    
   103   52   53 2    
   104   52   54 am   BACKBONE|DICT|INTERRES
   105   54   55 1    
   106   54  120 1    
   107   55   56 1    
   108   55   57 1    
   109   55  121 1    
   110   56  122 1    
   111   56  123 1    
   112   56  124 1    
   113   57   58 2    
   114   57   59 am   BACKBONE|DICT|INTERRES
   115   59   60 1    
   116   59  125 1    
   117   60   61 1    
   118   60   62 1    
   119   60  126 1    
   120   61  127 1    
   121   61  128 1    
   122   61  129 1    
   123   62   63 2    
   124   62   64 am   BACKBONE|DICT|INTERRES
   125   64   65 1    
   126   64  130 1    
   127   65   66 1    
   128   65   69 1    
   129   65  131 1    
   130   66   67 am   BACKBONE|DICT|INTERRES
   131   66   68 2    
   132   67  132 1    
   133   67  133 1    
   134   69   70 1    
   135   69  134 1    
   136   69  135 1    
   137   70   71 1    
   138   71  136 1    
   139   71  137 1    
@<TRIPOS>SUBSTRUCTURE
     1 UNK         1 GROUP             0       ****    0 ROOT    
