@<TRIPOS>MOLECULE
3R137
137   139    1
SMALL
USER_CHARGES


@<TRIPOS>ATOM
      1 CA         24.4561   -5.9223   -2.8823 C.3       0 UNK        -0.2020 
      2 C          25.2048   -4.8525   -2.1020 C.2       0 UNK         0.4855 
      3 O          24.5773   -3.9594   -1.5314 O.2       0 UNK        -0.5197 
      4 N          26.5418   -4.9447   -2.0774 N.am      1 UNK        -0.4892 
      5 CA         27.4768   -4.0419   -1.3930 C.3       1 UNK         0.0835 
      6 C6         28.9336   -4.5238   -1.6080 C.3       12 UNK        -0.0855 
      7 S7         30.1447   -3.6968   -0.5193 S.3       12 UNK        -0.2931 
      8 C8         31.6641   -3.7647   -1.5307 C.3       12 UNK         0.0378 
      9 C9         31.5263   -2.9827   -2.8299 C.ar      12 UNK        -0.0802 
     10 C10        31.5103   -3.6457   -4.0595 C.ar      12 UNK        -0.0944 
     11 C11        31.3348   -2.9369   -5.2532 C.ar      12 UNK        -0.0787 
     12 C12        31.1445   -1.5504   -5.2032 C.ar      12 UNK        -0.0862 
     13 C13        31.1740   -0.8734   -3.9785 C.ar      12 UNK        -0.0733 
     14 C14        31.3877   -1.5948   -2.8002 C.ar      12 UNK        -0.0832 
     15 C15        30.9470    0.6304   -3.9078 C.3       12 UNK         0.0240 
     16 S16        29.4967    1.0106   -2.8719 S.3       12 UNK        -0.2522 
     17 C17        28.5363    2.2085   -3.8537 C.3       12 UNK        -0.0967 
     18 CA         28.1085    1.7301   -5.2662 C.3       5 UNK         0.0660 
     19 N          27.6441    0.3406   -5.3204 N.am      5 UNK        -0.4015 
     20 C          27.4884   -0.3537   -6.4575 C.2       4 UNK         0.4946 
     21 O          27.8388    0.0668   -7.5613 O.2       4 UNK        -0.5353 
     22 CA         26.7884   -1.7197   -6.3639 C.3       4 UNK         0.0277 
     23 CB         27.8062   -2.8583   -6.2132 C.3       4 UNK        -0.1981 
     24 N          25.8233   -1.7647   -5.2640 N.am      4 UNK        -0.4209 
     25 C          24.6178   -1.1766   -5.3092 C.2       3 UNK         0.4942 
     26 O          24.1844   -0.6006   -6.3057 O.2       3 UNK        -0.5208 
     27 CA         23.7664   -1.1844   -4.0261 C.3       3 UNK         0.0250 
     28 CB         22.8094   -2.3853   -4.0196 C.3       3 UNK        -0.1990 
     29 N          24.5693   -1.1781   -2.8004 N.am      3 UNK        -0.4232 
     30 C          25.3706   -0.1639   -2.4388 C.2       2 UNK         0.4993 
     31 O          25.4562    0.8891   -3.0725 O.2       2 UNK        -0.5286 
     32 CA         26.2708   -0.3708   -1.2064 C.3       2 UNK         0.0209 
     33 CB         25.5965    0.2036    0.0490 C.3       2 UNK        -0.1931 
     34 N          26.6556   -1.7657   -0.9572 N.am      2 UNK        -0.4546 
     35 C          27.2638   -2.5772   -1.8362 C.2       1 UNK         0.5154 
     36 O          27.5727   -2.2345   -2.9782 O.2       1 UNK        -0.5181 
     37 C          27.0484    2.6782   -5.8565 C.2       5 UNK         0.5014 
     38 O          27.3963    3.5441   -6.6583 O.2       5 UNK        -0.5248 
     39 N          25.7728    2.4674   -5.4936 N.am      6 UNK        -0.4434 
     40 CA         24.6168    3.1868   -6.0420 C.3       6 UNK         0.0363 
     41 CB         23.3461    2.7846   -5.2775 C.3       6 UNK        -0.1936 
     42 C          24.4339    2.9740   -7.5569 C.2       6 UNK         0.5081 
     43 O          24.0737    3.9169   -8.2614 O.2       6 UNK        -0.5248 
     44 N          24.7317    1.7585   -8.0377 N.am      7 UNK        -0.4718 
     45 CA         24.7855    1.4023   -9.4602 C.3       7 UNK         0.0273 
     46 CB         24.7034   -0.1272   -9.5946 C.3       7 UNK        -0.1935 
     47 C          26.0341    1.9370  -10.1933 C.2       7 UNK         0.5018 
     48 O          26.1088    1.7922  -11.4142 O.2       7 UNK        -0.5186 
     49 N          26.9837    2.5288   -9.4523 N.am      8 UNK        -0.4240 
     50 CA         28.2548    3.1015   -9.9055 C.3       8 UNK         0.0235 
     51 CB         28.0189    4.3055  -10.8433 C.3       8 UNK        -0.2000 
     52 C          29.2298    2.0601  -10.4871 C.2       8 UNK         0.4941 
     53 O          29.9881    2.3841  -11.4034 O.2       8 UNK        -0.5273 
     54 N          29.2222    0.8365   -9.9351 N.am      9 UNK        -0.4262 
     55 CA         30.1783   -0.2190  -10.2854 C.3       9 UNK         0.0264 
     56 CB         29.6528   -1.5811   -9.8051 C.3       9 UNK        -0.1955 
     57 C          31.5761    0.0587   -9.7066 C.2       9 UNK         0.5031 
     58 O          32.5707   -0.2089  -10.3808 O.2       9 UNK        -0.5390 
     59 N          31.6122    0.5980   -8.4754 N.am      10 UNK        -0.4204 
     60 CA         32.7919    1.0761   -7.7344 C.3       10 UNK         0.0237 
     61 CB         33.3106    2.3843   -8.3683 C.3       10 UNK        -0.1985 
     62 C          33.9146    0.0305   -7.5438 C.2       10 UNK         0.4970 
     63 O          35.0857    0.4026   -7.4514 O.2       10 UNK        -0.4914 
     64 N          33.5428   -1.2549   -7.4965 N.am      11 UNK        -0.4285 
     65 CA         34.4633   -2.3975   -7.4195 C.3       11 UNK         0.1007 
     66 C          35.1831   -2.6011   -6.0528 C.2       11 UNK         0.5703 
     67 N          34.7571   -1.9552   -4.9739 N.am      11 UNK        -0.7361 
     68 O          36.1597   -3.3434   -5.9799 O.2       11 UNK        -0.4986 
     69 C69        33.8010   -3.6832   -7.9913 C.3       12 UNK        -0.0947 
     70 S70        32.7954   -4.6924   -6.8461 S.3       12 UNK        -0.2240 
     71 C71        31.2970   -3.6892   -6.5798 C.3       12 UNK         0.0194 
     72 H72        24.2096   -5.5624   -3.8803 H         1 UNK         0.0906 
     73 H73        25.0464   -6.8328   -2.9840 H         1 UNK         0.0906 
     74 H74        23.5278   -6.1811   -2.3734 H         1 UNK         0.0906 
     75 H75        26.9780   -5.6946   -2.5946 H         1 UNK         0.3140 
     76 H76        27.2560   -4.1136   -0.3259 H         1 UNK         0.1085 
     77 H77        29.0055   -5.5935   -1.4044 H         1 UNK         0.0836 
     78 H78        29.2153   -4.4017   -2.6546 H         1 UNK         0.0836 
     79 H79        31.9148   -4.8081   -1.7287 H         1 UNK         0.0731 
     80 H80        32.4935   -3.3545   -0.9529 H         1 UNK         0.0731 
     81 H81        31.6220   -4.7208   -4.0902 H         1 UNK         0.1312 
     82 H82        30.9547   -0.9994   -6.1120 H         1 UNK         0.1406 
     83 H83        31.3932   -1.0794   -1.8492 H         1 UNK         0.1631 
     84 H84        30.8322    1.0517   -4.9046 H         1 UNK         0.0717 
     85 H85        31.8267    1.1076   -3.4741 H         1 UNK         0.0717 
     86 H86        27.6613    2.4618   -3.2514 H         1 UNK         0.0934 
     87 H87        29.1158    3.1304   -3.9321 H         1 UNK         0.0934 
     88 H88        28.9799    1.8012   -5.9189 H         1 UNK         0.0739 
     89 H89        27.3735   -0.0818   -4.4427 H         1 UNK         0.3093 
     90 H90        26.2496   -1.8821   -7.2989 H         1 UNK         0.0818 
     91 H91        28.4523   -2.9148   -7.0881 H         1 UNK         0.0819 
     92 H92        28.4460   -2.7212   -5.3419 H         1 UNK         0.0819 
     93 H93        27.3116   -3.8246   -6.1156 H         1 UNK         0.0819 
     94 H94        26.1601   -2.1524   -4.3878 H         1 UNK         0.3041 
     95 H95        23.1630   -0.2746   -4.0267 H         1 UNK         0.0784 
     96 H96        22.1440   -2.3560   -4.8836 H         1 UNK         0.0793 
     97 H97        23.3494   -3.3302   -4.0585 H         1 UNK         0.0793 
     98 H98        22.1832   -2.3919   -3.1273 H         1 UNK         0.0793 
     99 H99        24.5665   -2.0258   -2.2403 H         1 UNK         0.3024 
    100 H100       27.1885    0.1902   -1.3849 H         1 UNK         0.1171 
    101 H101       26.2637    0.1678    0.9104 H         1 UNK         0.0786 
    102 H102       25.3203    1.2486   -0.1003 H         1 UNK         0.0786 
    103 H103       24.6865   -0.3414    0.3036 H         1 UNK         0.0786 
    104 H104       26.3882   -2.1471   -0.0611 H         1 UNK         0.2977 
    105 H105       25.5838    1.7782   -4.7687 H         1 UNK         0.3127 
    106 H106       24.7888    4.2527   -5.8780 H         1 UNK         0.0770 
    107 H107       23.0997    1.7339   -5.4285 H         1 UNK         0.0814 
    108 H108       22.4894    3.3699   -5.6139 H         1 UNK         0.0814 
    109 H109       23.4550    2.9534   -4.2059 H         1 UNK         0.0814 
    110 H110       24.9239    1.0124   -7.3773 H         1 UNK         0.2983 
    111 H111       23.9130    1.8356   -9.9538 H         1 UNK         0.0947 
    112 H112       24.6438   -0.4256  -10.6420 H         1 UNK         0.0806 
    113 H113       23.8206   -0.5258   -9.0944 H         1 UNK         0.0806 
    114 H114       25.5812   -0.6130   -9.1692 H         1 UNK         0.0806 
    115 H115       26.8247    2.5953   -8.4536 H         1 UNK         0.3000 
    116 H116       28.7428    3.4852   -9.0087 H         1 UNK         0.0850 
    117 H117       28.9534    4.8272  -11.0530 H         1 UNK         0.0810 
    118 H118       27.3394    5.0299  -10.3941 H         1 UNK         0.0810 
    119 H119       27.5979    3.9981  -11.8010 H         1 UNK         0.0810 
    120 H120       28.5740    0.6361   -9.1741 H         1 UNK         0.3040 
    121 H121       30.2665   -0.2563  -11.3735 H         1 UNK         0.0766 
    122 H122       28.6720   -1.7992  -10.2280 H         1 UNK         0.0812 
    123 H123       29.5639   -1.6183   -8.7205 H         1 UNK         0.0812 
    124 H124       30.3239   -2.3867  -10.1063 H         1 UNK         0.0812 
    125 H125       30.7194    0.7717   -8.0357 H         1 UNK         0.3205 
    126 H126       32.4443    1.3187   -6.7299 H         1 UNK         0.0754 
    127 H127       34.0966    2.8350   -7.7609 H         1 UNK         0.0769 
    128 H128       32.5143    3.1230   -8.4615 H         1 UNK         0.0769 
    129 H129       33.7240    2.2119   -9.3627 H         1 UNK         0.0769 
    130 H130       32.5673   -1.4806   -7.5909 H         1 UNK         0.2981 
    131 H131       35.2719   -2.1574   -8.1131 H         1 UNK         0.0541 
    132 H132       33.9340   -1.3777   -5.0170 H         1 UNK         0.3459 
    133 H133       35.2338   -2.0927   -4.0976 H         1 UNK         0.3459 
    134 H134       33.2008   -3.4471   -8.8718 H         1 UNK         0.0612 
    135 H135       34.5894   -4.3424   -8.3582 H         1 UNK         0.0612 
    136 H136       31.1463   -3.0137   -7.4217 H         1 UNK         0.0624 
    137 H137       30.4380   -4.3609   -6.5685 H         1 UNK         0.0624 
@<TRIPOS>BOND
     1    1    2 1    
     2    1   72 1    
     3    1   73 1    
     4    1   74 1    
     5    2    3 2    
     6    2    4 am   BACKBONE|DICT|INTERRES
     7    4    5 1    
     8    4   75 1    
     9    5    6 1    
    10    5   35 1    
    11    5   76 1    
    12    6    7 1    
    13    6   77 1    
    14    6   78 1    
    15    7    8 1    
    16    8    9 1    
    17    8   79 1    
    18    8   80 1    
    19    9   10 ar   
    20    9   14 ar   
    21   10   11 ar   
    22   10   81 1    
    23   11   12 ar   
    24   11   71 1    
    25   12   13 ar   
    26   12   82 1    
    27   13   14 ar   
    28   13   15 1    
    29   14   83 1    
    30   15   16 1    
    31   15   84 1    
    32   15   85 1    
    33   16   17 1    
    34   17   18 1    
    35   17   86 1    
    36   17   87 1    
    37   18   19 1    
    38   18   37 1    
    39   18   88 1    
    40   19   20 am   BACKBONE|DICT|INTERRES
    41   19   89 1    
    42   20   21 2    
    43   20   22 1    
    44   22   23 1    
    45   22   24 1    
    46   22   90 1    
    47   23   91 1    
    48   23   92 1    
    49   23   93 1    
    50   24   25 am   BACKBONE|DICT|INTERRES
    51   24   94 1    
    52   25   26 2    
    53   25   27 1    
    54   27   28 1    
    55   27   29 1    
    56   27   95 1    
    57   28   96 1    
    58   28   97 1    
    59   28   98 1    
    60   29   30 am   BACKBONE|DICT|INTERRES
    61   29   99 1    
    62   30   31 2    
    63   30   32 1    
    64   32   33 1    
    65   32   34 1    
    66   32  100 1    
    67   33  101 1    
    68   33  102 1    
    69   33  103 1    
    70   34   35 am   BACKBONE|DICT|INTERRES
    71   34  104 1    
    72   35   36 2    
    73   37   38 2    
    74   37   39 am   BACKBONE|DICT|INTERRES
    75   39   40 1    
    76   39  105 1    
    77   40   41 1    
    78   40   42 1    
    79   40  106 1    
    80   41  107 1    
    81   41  108 1    
    82   41  109 1    
    83   42   43 2    
    84   42   44 am   BACKBONE|DICT|INTERRES
    85   44   45 1    
    86   44  110 1    
    87   45   46 1    
    88   45   47 1    
    89   45  111 1    
    90   46  112 1    
    91   46  113 1    
    92   46  114 1    
    93   47   48 2    
    94   47   49 am   BACKBONE|DICT|INTERRES
    95   49   50 1    
    96   49  115 1    
    97   50   51 1    
    98   50   52 1    
    99   50  116 1    
   100   51  117 1    
   101   51  118 1    
   102   51  119 1    
   103   52   53 2    
   104   52   54 am   BACKBONE|DICT|INTERRES
   105   54   55 1    
   106   54  120 1    
   107   55   56 1    
   108   55   57 1    
   109   55  121 1    
   110   56  122 1    
   111   56  123 1    
   112   56  124 1    
   113   57   58 2    
   114   57   59 am   BACKBONE|DICT|INTERRES
   115   59   60 1    
   116   59  125 1    
   117   60   61 1    
   118   60   62 1    
   119   60  126 1    
   120   61  127 1    
   121   61  128 1    
   122   61  129 1    
   123   62   63 2    
   124   62   64 am   BACKBONE|DICT|INTERRES
   125   64   65 1    
   126   64  130 1    
   127   65   66 1    
   128   65   69 1    
   129   65  131 1    
   130   66   67 am   BACKBONE|DICT|INTERRES
   131   66   68 2    
   132   67  132 1    
   133   67  133 1    
   134   69   70 1    
   135   69  134 1    
   136   69  135 1    
   137   70   71 1    
   138   71  136 1    
   139   71  137 1    
@<TRIPOS>SUBSTRUCTURE
     1 UNK         1 GROUP             0       ****    0 ROOT    
