@<TRIPOS>MOLECULE
3R137
137   139    1
SMALL
USER_CHARGES


@<TRIPOS>ATOM
      1 CA         29.1153   -0.2516   -2.3089 C.3       0 UNK        -0.2020 
      2 C          29.0887   -0.6492   -0.8350 C.2       0 UNK         0.4855 
      3 O          29.3389    0.1972    0.0200 O.2       0 UNK        -0.5197 
      4 N          28.7959   -1.9085   -0.4777 N.am      1 UNK        -0.4892 
      5 CA         28.4600   -3.0340   -1.3647 C.3       1 UNK         0.0835 
      6 C6         28.6276   -4.4092   -0.6588 C.3       12 UNK        -0.0855 
      7 S7         30.2169   -4.6190    0.2221 S.3       12 UNK        -0.2931 
      8 C8         31.2755   -5.3794   -1.0526 C.3       12 UNK         0.0378 
      9 C9         31.4792   -4.4410   -2.2312 C.ar      12 UNK        -0.0802 
     10 C10        32.1926   -3.2490   -2.0608 C.ar      12 UNK        -0.0944 
     11 C11        32.3074   -2.3352   -3.1111 C.ar      12 UNK        -0.0787 
     12 C12        31.7157   -2.6351   -4.3387 C.ar      12 UNK        -0.0862 
     13 C13        31.0253   -3.8323   -4.5345 C.ar      12 UNK        -0.0733 
     14 C14        30.9134   -4.7376   -3.4761 C.ar      12 UNK        -0.0832 
     15 C15        30.3946   -4.1381   -5.8863 C.3       12 UNK         0.0240 
     16 S16        28.6039   -3.8073   -5.8908 S.3       12 UNK        -0.2522 
     17 C17        28.5471   -1.9928   -5.7090 C.3       12 UNK        -0.0967 
     18 CA         27.6442   -1.3275   -6.7703 C.3       5 UNK         0.0660 
     19 N          26.2376   -1.7147   -6.6340 N.am      5 UNK        -0.4015 
     20 C          25.2996   -1.4782   -7.5616 C.2       4 UNK         0.4946 
     21 O          25.5197   -0.9169   -8.6359 O.2       4 UNK        -0.5353 
     22 CA         23.8643   -1.9001   -7.2087 C.3       4 UNK         0.0277 
     23 CB         23.7128   -3.4298   -7.2505 C.3       4 UNK        -0.1981 
     24 N          23.4275   -1.3922   -5.9050 N.am      4 UNK        -0.4209 
     25 C          23.3234   -0.0920   -5.5937 C.2       3 UNK         0.4942 
     26 O          23.5825    0.8212   -6.3733 O.2       3 UNK        -0.5208 
     27 CA         22.8727    0.2656   -4.1698 C.3       3 UNK         0.0250 
     28 CB         21.3432    0.4078   -4.1148 C.3       3 UNK        -0.1990 
     29 N          23.3122   -0.6709   -3.1335 N.am      3 UNK        -0.4232 
     30 C          24.5829   -0.9904   -2.8497 C.2       2 UNK         0.4993 
     31 O          25.5548   -0.5884   -3.4984 O.2       2 UNK        -0.5286 
     32 CA         24.7636   -1.8809   -1.6046 C.3       2 UNK         0.0209 
     33 CB         23.9432   -3.1884   -1.6959 C.3       2 UNK        -0.1931 
     34 N          26.1667   -2.1609   -1.2772 N.am      2 UNK        -0.4546 
     35 C          27.0376   -2.9242   -1.9542 C.2       1 UNK         0.5154 
     36 O          26.7627   -3.5406   -2.9828 O.2       1 UNK        -0.5181 
     37 C          27.8143    0.2018   -6.7414 C.2       5 UNK         0.5014 
     38 O          28.6320    0.7246   -7.5005 O.2       5 UNK        -0.5248 
     39 N          27.0313    0.8883   -5.8941 N.am      6 UNK        -0.4434 
     40 CA         27.0135    2.3485   -5.7905 C.3       6 UNK         0.0363 
     41 CB         26.1649    2.7759   -4.5835 C.3       6 UNK        -0.1936 
     42 C          26.5250    3.0315   -7.0801 C.2       6 UNK         0.5081 
     43 O          27.1724    3.9704   -7.5418 O.2       6 UNK        -0.5248 
     44 N          25.4228    2.5330   -7.6598 N.am      7 UNK        -0.4718 
     45 CA         24.8546    3.0135   -8.9242 C.3       7 UNK         0.0273 
     46 CB         23.4672    2.3900   -9.1430 C.3       7 UNK        -0.1935 
     47 C          25.7621    2.7382  -10.1328 C.2       7 UNK         0.5018 
     48 O          25.8544    3.5847  -11.0225 O.2       7 UNK        -0.5186 
     49 N          26.4357    1.5790  -10.1319 N.am      8 UNK        -0.4240 
     50 CA         27.4476    1.2121  -11.1265 C.3       8 UNK         0.0235 
     51 CB         27.7276   -0.2965  -11.0230 C.3       8 UNK        -0.2000 
     52 C          28.7627    2.0031  -10.9878 C.2       8 UNK         0.4941 
     53 O          29.5452    2.0192  -11.9388 O.2       8 UNK        -0.5273 
     54 N          28.9933    2.6078   -9.8107 N.am      9 UNK        -0.4262 
     55 CA         30.2319    3.2532   -9.3585 C.3       9 UNK         0.0264 
     56 CB         30.5196    4.5345  -10.1692 C.3       9 UNK        -0.1955 
     57 C          31.4149    2.2646   -9.3350 C.2       9 UNK         0.5031 
     58 O          32.5265    2.6135   -9.7399 O.2       9 UNK        -0.5390 
     59 N          31.1362    1.0353   -8.8871 N.am      10 UNK        -0.4204 
     60 CA         32.0701   -0.0856   -8.8622 C.3       10 UNK         0.0237 
     61 CB         31.3123   -1.3529   -9.2950 C.3       10 UNK        -0.1985 
     62 C          32.6404   -0.2751   -7.4530 C.2       10 UNK         0.4970 
     63 O          31.9584    0.0412   -6.4771 O.2       10 UNK        -0.4914 
     64 N          33.8486   -0.8447   -7.3913 N.am      11 UNK        -0.4285 
     65 CA         34.5512   -1.3712   -6.2128 C.3       11 UNK         0.1007 
     66 C          35.8622   -2.0824   -6.6537 C.2       11 UNK         0.5703 
     67 N          36.6191   -2.6411   -5.7205 N.am      11 UNK        -0.7361 
     68 O          36.1957   -2.1443   -7.8373 O.2       11 UNK        -0.4986 
     69 C69        34.7627   -0.3318   -5.0684 C.3       12 UNK        -0.0947 
     70 S70        34.7769   -1.0945   -3.4061 S.3       12 UNK        -0.2240 
     71 C71        33.0265   -1.0083   -2.9056 C.3       12 UNK         0.0194 
     72 H72        28.1096   -0.2456   -2.7266 H         1 UNK         0.0906 
     73 H73        29.5243    0.7520   -2.4241 H         1 UNK         0.0906 
     74 H74        29.7408   -0.9238   -2.8932 H         1 UNK         0.0906 
     75 H75        28.8338   -2.1460    0.5038 H         1 UNK         0.3140 
     76 H76        29.1425   -3.0110   -2.2133 H         1 UNK         0.1085 
     77 H77        27.8351   -4.5539    0.0785 H         1 UNK         0.0836 
     78 H78        28.5137   -5.2216   -1.3796 H         1 UNK         0.0836 
     79 H79        30.8369   -6.3262   -1.3717 H         1 UNK         0.0731 
     80 H80        32.2446   -5.6206   -0.6135 H         1 UNK         0.0731 
     81 H81        32.6251   -3.0179   -1.0968 H         1 UNK         0.1312 
     82 H82        31.7852   -1.9281   -5.1458 H         1 UNK         0.1406 
     83 H83        30.3583   -5.6555   -3.6160 H         1 UNK         0.1631 
     84 H84        30.5589   -5.1875   -6.1345 H         1 UNK         0.0717 
     85 H85        30.8733   -3.5598   -6.6785 H         1 UNK         0.0717 
     86 H86        28.1965   -1.7602   -4.7028 H         1 UNK         0.0934 
     87 H87        29.5593   -1.5930   -5.7827 H         1 UNK         0.0934 
     88 H88        27.9815   -1.6624   -7.7537 H         1 UNK         0.0739 
     89 H89        25.9754   -2.1606   -5.7661 H         1 UNK         0.3093 
     90 H90        23.2035   -1.4732   -7.9664 H         1 UNK         0.0818 
     91 H91        24.0313   -3.8260   -8.2158 H         1 UNK         0.0819 
     92 H92        24.3121   -3.9214   -6.4830 H         1 UNK         0.0819 
     93 H93        22.6743   -3.7289   -7.1075 H         1 UNK         0.0819 
     94 H94        23.1961   -2.0736   -5.1972 H         1 UNK         0.3041 
     95 H95        23.3080    1.2363   -3.9272 H         1 UNK         0.0784 
     96 H96        20.9906    1.1193   -4.8631 H         1 UNK         0.0793 
     97 H97        20.8410   -0.5414   -4.3060 H         1 UNK         0.0793 
     98 H98        21.0120    0.7747   -3.1431 H         1 UNK         0.0793 
     99 H99        22.5838   -1.0479   -2.5444 H         1 UNK         0.3024 
    100 H100       24.3783   -1.3045   -0.7616 H         1 UNK         0.1171 
    101 H101       24.1386   -3.8381   -0.8426 H         1 UNK         0.0786 
    102 H102       22.8712   -2.9902   -1.7011 H         1 UNK         0.0786 
    103 H103       24.1711   -3.7517   -2.6014 H         1 UNK         0.0786 
    104 H104       26.5250   -1.6816   -0.4627 H         1 UNK         0.2977 
    105 H105       26.4008    0.3779   -5.2850 H         1 UNK         0.3127 
    106 H106       28.0405    2.6749   -5.6121 H         1 UNK         0.0770 
    107 H107       26.5182    2.3110   -3.6627 H         1 UNK         0.0814 
    108 H108       25.1168    2.5091   -4.7136 H         1 UNK         0.0814 
    109 H109       26.2093    3.8563   -4.4412 H         1 UNK         0.0814 
    110 H110       24.9106    1.7859   -7.1925 H         1 UNK         0.2983 
    111 H111       24.7335    4.0961   -8.8450 H         1 UNK         0.0947 
    112 H112       23.0229    2.7380  -10.0765 H         1 UNK         0.0806 
    113 H113       22.7820    2.6576   -8.3385 H         1 UNK         0.0806 
    114 H114       23.5186    1.3011   -9.1893 H         1 UNK         0.0806 
    115 H115       26.2477    0.9036   -9.3972 H         1 UNK         0.3000 
    116 H116       27.0432    1.4194  -12.1196 H         1 UNK         0.0850 
    117 H117       28.4533   -0.6136  -11.7731 H         1 UNK         0.0810 
    118 H118       26.8209   -0.8806  -11.1816 H         1 UNK         0.0810 
    119 H119       28.1308   -0.5637  -10.0456 H         1 UNK         0.0810 
    120 H120       28.2846    2.5066   -9.0947 H         1 UNK         0.3040 
    121 H121       30.0592    3.5478   -8.3221 H         1 UNK         0.0766 
    122 H122       30.7571    4.3123  -11.2099 H         1 UNK         0.0812 
    123 H123       31.3682    5.0774   -9.7516 H         1 UNK         0.0812 
    124 H124       29.6644    5.2102  -10.1564 H         1 UNK         0.0812 
    125 H125       30.2251    0.8736   -8.4595 H         1 UNK         0.3205 
    126 H126       32.8899    0.0911   -9.5620 H         1 UNK         0.0754 
    127 H127       31.9729   -2.2208   -9.3138 H         1 UNK         0.0769 
    128 H128       30.8963   -1.2410  -10.2966 H         1 UNK         0.0769 
    129 H129       30.4894   -1.5828   -8.6162 H         1 UNK         0.0769 
    130 H130       34.3347   -1.0603   -8.2532 H         1 UNK         0.2981 
    131 H131       33.9174   -2.1773   -5.8484 H         1 UNK         0.0541 
    132 H132       36.3556   -2.5798   -4.7482 H         1 UNK         0.3459 
    133 H133       37.4701   -3.1104   -5.9875 H         1 UNK         0.3459 
    134 H134       33.9983    0.4432   -5.0711 H         1 UNK         0.0612 
    135 H135       35.7006    0.2082   -5.2094 H         1 UNK         0.0612 
    136 H136       32.9830   -0.7270   -1.8524 H         1 UNK         0.0624 
    137 H137       32.5107   -0.2139   -3.4471 H         1 UNK         0.0624 
@<TRIPOS>BOND
     1    1    2 1    
     2    1   72 1    
     3    1   73 1    
     4    1   74 1    
     5    2    3 2    
     6    2    4 am   BACKBONE|DICT|INTERRES
     7    4    5 1    
     8    4   75 1    
     9    5    6 1    
    10    5   35 1    
    11    5   76 1    
    12    6    7 1    
    13    6   77 1    
    14    6   78 1    
    15    7    8 1    
    16    8    9 1    
    17    8   79 1    
    18    8   80 1    
    19    9   10 ar   
    20    9   14 ar   
    21   10   11 ar   
    22   10   81 1    
    23   11   12 ar   
    24   11   71 1    
    25   12   13 ar   
    26   12   82 1    
    27   13   14 ar   
    28   13   15 1    
    29   14   83 1    
    30   15   16 1    
    31   15   84 1    
    32   15   85 1    
    33   16   17 1    
    34   17   18 1    
    35   17   86 1    
    36   17   87 1    
    37   18   19 1    
    38   18   37 1    
    39   18   88 1    
    40   19   20 am   BACKBONE|DICT|INTERRES
    41   19   89 1    
    42   20   21 2    
    43   20   22 1    
    44   22   23 1    
    45   22   24 1    
    46   22   90 1    
    47   23   91 1    
    48   23   92 1    
    49   23   93 1    
    50   24   25 am   BACKBONE|DICT|INTERRES
    51   24   94 1    
    52   25   26 2    
    53   25   27 1    
    54   27   28 1    
    55   27   29 1    
    56   27   95 1    
    57   28   96 1    
    58   28   97 1    
    59   28   98 1    
    60   29   30 am   BACKBONE|DICT|INTERRES
    61   29   99 1    
    62   30   31 2    
    63   30   32 1    
    64   32   33 1    
    65   32   34 1    
    66   32  100 1    
    67   33  101 1    
    68   33  102 1    
    69   33  103 1    
    70   34   35 am   BACKBONE|DICT|INTERRES
    71   34  104 1    
    72   35   36 2    
    73   37   38 2    
    74   37   39 am   BACKBONE|DICT|INTERRES
    75   39   40 1    
    76   39  105 1    
    77   40   41 1    
    78   40   42 1    
    79   40  106 1    
    80   41  107 1    
    81   41  108 1    
    82   41  109 1    
    83   42   43 2    
    84   42   44 am   BACKBONE|DICT|INTERRES
    85   44   45 1    
    86   44  110 1    
    87   45   46 1    
    88   45   47 1    
    89   45  111 1    
    90   46  112 1    
    91   46  113 1    
    92   46  114 1    
    93   47   48 2    
    94   47   49 am   BACKBONE|DICT|INTERRES
    95   49   50 1    
    96   49  115 1    
    97   50   51 1    
    98   50   52 1    
    99   50  116 1    
   100   51  117 1    
   101   51  118 1    
   102   51  119 1    
   103   52   53 2    
   104   52   54 am   BACKBONE|DICT|INTERRES
   105   54   55 1    
   106   54  120 1    
   107   55   56 1    
   108   55   57 1    
   109   55  121 1    
   110   56  122 1    
   111   56  123 1    
   112   56  124 1    
   113   57   58 2    
   114   57   59 am   BACKBONE|DICT|INTERRES
   115   59   60 1    
   116   59  125 1    
   117   60   61 1    
   118   60   62 1    
   119   60  126 1    
   120   61  127 1    
   121   61  128 1    
   122   61  129 1    
   123   62   63 2    
   124   62   64 am   BACKBONE|DICT|INTERRES
   125   64   65 1    
   126   64  130 1    
   127   65   66 1    
   128   65   69 1    
   129   65  131 1    
   130   66   67 am   BACKBONE|DICT|INTERRES
   131   66   68 2    
   132   67  132 1    
   133   67  133 1    
   134   69   70 1    
   135   69  134 1    
   136   69  135 1    
   137   70   71 1    
   138   71  136 1    
   139   71  137 1    
@<TRIPOS>SUBSTRUCTURE
     1 UNK         1 GROUP             0       ****    0 ROOT    
