@<TRIPOS>MOLECULE
3R137
137   139    1
SMALL
USER_CHARGES


@<TRIPOS>ATOM
      1 CA         27.0399   -5.2292    4.0577 C.3       0 UNK        -0.2020 
      2 C          27.1551   -4.2928    2.8639 C.2       0 UNK         0.4855 
      3 O          27.1350   -3.0735    3.0383 O.2       0 UNK        -0.5197 
      4 N          27.2856   -4.8524    1.6551 N.am      1 UNK        -0.4892 
      5 CA         27.3638   -4.1078    0.3924 C.3       1 UNK         0.0835 
      6 C6         28.0338   -4.9360   -0.7351 C.3       12 UNK        -0.0855 
      7 S7         29.6843   -5.5771   -0.2884 S.3       12 UNK        -0.2931 
      8 C8         30.7424   -4.1019   -0.5073 C.3       12 UNK         0.0378 
      9 C9         31.1214   -3.7301   -1.9440 C.ar      12 UNK        -0.0802 
     10 C10        32.0619   -2.7100   -2.1237 C.ar      12 UNK        -0.0944 
     11 C11        32.4749   -2.3312   -3.4031 C.ar      12 UNK        -0.0787 
     12 C12        31.9425   -2.9821   -4.5162 C.ar      12 UNK        -0.0862 
     13 C13        30.9638   -3.9674   -4.3636 C.ar      12 UNK        -0.0733 
     14 C14        30.5747   -4.3523   -3.0766 C.ar      12 UNK        -0.0832 
     15 C15        30.3255   -4.6227   -5.5836 C.3       12 UNK         0.0240 
     16 S16        29.8479   -3.4236   -6.8745 S.3       12 UNK        -0.2522 
     17 C17        28.6122   -2.3944   -6.0143 C.3       12 UNK        -0.0967 
     18 CA         27.8425   -1.4761   -7.0012 C.3       5 UNK         0.0660 
     19 N          26.4504   -1.2752   -6.5834 N.am      5 UNK        -0.4015 
     20 C          25.4843   -0.8185   -7.3943 C.2       4 UNK         0.4946 
     21 O          25.6691   -0.5183   -8.5724 O.2       4 UNK        -0.5353 
     22 CA         24.0833   -0.6244   -6.7887 C.3       4 UNK         0.0277 
     23 CB         23.2798   -1.9321   -6.8695 C.3       4 UNK        -0.1981 
     24 N          24.0910   -0.1419   -5.4058 N.am      4 UNK        -0.4209 
     25 C          24.6890    0.9772   -4.9703 C.2       3 UNK         0.4942 
     26 O          25.3097    1.7474   -5.7015 O.2       3 UNK        -0.5208 
     27 CA         24.6165    1.2737   -3.4622 C.3       3 UNK         0.0250 
     28 CB         23.5273    2.3194   -3.1758 C.3       3 UNK        -0.1990 
     29 N          24.3807    0.0832   -2.6365 N.am      3 UNK        -0.4232 
     30 C          25.2415   -0.9356   -2.5110 C.2       2 UNK         0.4993 
     31 O          26.3358   -0.9907   -3.0808 O.2       2 UNK        -0.5286 
     32 CA         24.7796   -2.1179   -1.6569 C.3       2 UNK         0.0209 
     33 CB         24.0102   -3.1345   -2.5248 C.3       2 UNK        -0.1931 
     34 N          25.9644   -2.7347   -1.0704 N.am      2 UNK        -0.4546 
     35 C          25.9738   -3.6049   -0.0554 C.2       1 UNK         0.5154 
     36 O          24.9483   -4.0200    0.4930 O.2       1 UNK        -0.5181 
     37 C          28.5726   -0.1366   -7.2567 C.2       5 UNK         0.5014 
     38 O          29.4153   -0.0587   -8.1549 O.2       5 UNK        -0.5248 
     39 N          28.2182    0.9062   -6.4911 N.am      6 UNK        -0.4434 
     40 CA         28.6991    2.2734   -6.6935 C.3       6 UNK         0.0363 
     41 CB         28.5321    3.0860   -5.3999 C.3       6 UNK        -0.1936 
     42 C          27.9877    2.9532   -7.8727 C.2       6 UNK         0.5081 
     43 O          28.6489    3.6187   -8.6673 O.2       6 UNK        -0.5248 
     44 N          26.6692    2.7428   -8.0023 N.am      7 UNK        -0.4718 
     45 CA         25.8479    3.2385   -9.1143 C.3       7 UNK         0.0273 
     46 CB         24.3663    2.9448   -8.8350 C.3       7 UNK        -0.1935 
     47 C          26.2692    2.6634  -10.4789 C.2       7 UNK         0.5018 
     48 O          26.2588    3.3905  -11.4724 O.2       7 UNK        -0.5186 
     49 N          26.6805    1.3877  -10.4917 N.am      8 UNK        -0.4240 
     50 CA         27.2879    0.7050  -11.6376 C.3       8 UNK         0.0235 
     51 CB         27.2464   -0.8126  -11.3875 C.3       8 UNK        -0.2000 
     52 C          28.7330    1.1518  -11.9391 C.2       8 UNK         0.4941 
     53 O          29.2736    0.7405  -12.9663 O.2       8 UNK        -0.5273 
     54 N          29.3408    1.9492  -11.0454 N.am      9 UNK        -0.4262 
     55 CA         30.7229    2.4425  -11.0750 C.3       9 UNK         0.0264 
     56 CB         30.9581    3.3706  -12.2861 C.3       9 UNK        -0.1955 
     57 C          31.7805    1.3280  -10.9560 C.2       9 UNK         0.5031 
     58 O          32.9140    1.5158  -11.4033 O.2       9 UNK        -0.5390 
     59 N          31.4073    0.1970  -10.3413 N.am      10 UNK        -0.4204 
     60 CA         32.3204   -0.8924  -10.0003 C.3       10 UNK         0.0237 
     61 CB         31.5488   -2.2190   -9.9444 C.3       10 UNK        -0.1985 
     62 C          33.0398   -0.5879   -8.6785 C.2       10 UNK         0.4970 
     63 O          34.2568   -0.7603   -8.6018 O.2       10 UNK        -0.4914 
     64 N          32.2871   -0.0927   -7.6872 N.am      11 UNK        -0.4285 
     65 CA         32.8281    0.5507   -6.4848 C.3       11 UNK         0.1007 
     66 C          33.1774    2.0379   -6.7643 C.2       11 UNK         0.5703 
     67 N          34.2126    2.5659   -6.1262 N.am      11 UNK        -0.7361 
     68 O          32.5025    2.7226   -7.5314 O.2       11 UNK        -0.4986 
     69 C69        31.8620    0.3929   -5.2805 C.3       12 UNK        -0.0947 
     70 S70        32.7227    0.4269   -3.6700 S.3       12 UNK        -0.2240 
     71 C71        33.4984   -1.2218   -3.5853 C.3       12 UNK         0.0194 
     72 H72        26.0918   -5.0682    4.5701 H         1 UNK         0.0906 
     73 H73        27.8467   -5.0375    4.7645 H         1 UNK         0.0906 
     74 H74        27.0913   -6.2768    3.7611 H         1 UNK         0.0906 
     75 H75        27.2849   -5.8585    1.5668 H         1 UNK         0.3140 
     76 H76        27.9726   -3.2184    0.5680 H         1 UNK         0.1085 
     77 H77        28.1246   -4.3409   -1.6447 H         1 UNK         0.0836 
     78 H78        27.4079   -5.7909   -0.9992 H         1 UNK         0.0836 
     79 H79        30.2679   -3.2434   -0.0311 H         1 UNK         0.0731 
     80 H80        31.6631   -4.2827    0.0497 H         1 UNK         0.0731 
     81 H81        32.4807   -2.2088   -1.2613 H         1 UNK         0.1312 
     82 H82        32.2659   -2.6957   -5.5078 H         1 UNK         0.1406 
     83 H83        29.8438   -5.1402   -2.9709 H         1 UNK         0.1631 
     84 H84        29.4430   -5.1981   -5.2998 H         1 UNK         0.0717 
     85 H85        31.0350   -5.3326   -6.0102 H         1 UNK         0.0717 
     86 H86        27.9226   -3.0794   -5.5178 H         1 UNK         0.0934 
     87 H87        29.0908   -1.8257   -5.2140 H         1 UNK         0.0934 
     88 H88        27.7922   -1.9855   -7.9666 H         1 UNK         0.0739 
     89 H89        26.2287   -1.4657   -5.6156 H         1 UNK         0.3093 
     90 H90        23.5678    0.1266   -7.3890 H         1 UNK         0.0818 
     91 H91        23.2443   -2.3048   -7.8944 H         1 UNK         0.0819 
     92 H92        23.7184   -2.7173   -6.2523 H         1 UNK         0.0819 
     93 H93        22.2490   -1.7862   -6.5458 H         1 UNK         0.0819 
     94 H94        23.5946   -0.7021   -4.7295 H         1 UNK         0.3041 
     95 H95        25.5810    1.6961   -3.1718 H         1 UNK         0.0784 
     96 H96        23.6945    3.2261   -3.7594 H         1 UNK         0.0793 
     97 H97        22.5330    1.9487   -3.4282 H         1 UNK         0.0793 
     98 H98        23.5221    2.6105   -2.1252 H         1 UNK         0.0793 
     99 H99        23.5003    0.0456   -2.1418 H         1 UNK         0.3024 
    100 H100       24.1365   -1.7514   -0.8531 H         1 UNK         0.1171 
    101 H101       23.1355   -2.6758   -2.9873 H         1 UNK         0.0786 
    102 H102       23.6512   -3.9770   -1.9338 H         1 UNK         0.0786 
    103 H103       24.6342   -3.5325   -3.3263 H         1 UNK         0.0786 
    104 H104       26.8327   -2.4153   -1.4841 H         1 UNK         0.2977 
    105 H105       27.4796    0.7843   -5.8119 H         1 UNK         0.3127 
    106 H106       29.7639    2.2380   -6.9327 H         1 UNK         0.0770 
    107 H107       29.0717    2.6279   -4.5710 H         1 UNK         0.0814 
    108 H108       28.9267    4.0952   -5.5243 H         1 UNK         0.0814 
    109 H109       27.4859    3.1804   -5.1080 H         1 UNK         0.0814 
    110 H110       26.1844    2.2367   -7.2637 H         1 UNK         0.2983 
    111 H111       25.9789    4.3218   -9.1596 H         1 UNK         0.0947 
    112 H112       24.1648    1.8741   -8.8264 H         1 UNK         0.0806 
    113 H113       23.7309    3.3883   -9.6026 H         1 UNK         0.0806 
    114 H114       24.0519    3.3545   -7.8748 H         1 UNK         0.0806 
    115 H115       26.5550    0.8318   -9.6492 H         1 UNK         0.3000 
    116 H116       26.6893    0.9249  -12.5240 H         1 UNK         0.0850 
    117 H117       27.6589   -1.3641  -12.2334 H         1 UNK         0.0810 
    118 H118       26.2241   -1.1625  -11.2427 H         1 UNK         0.0810 
    119 H119       27.8229   -1.0898  -10.5038 H         1 UNK         0.0810 
    120 H120       28.8064    2.2574  -10.2405 H         1 UNK         0.3040 
    121 H121       30.8403    3.0485  -10.1753 H         1 UNK         0.0766 
    122 H122       30.9399    2.8218  -13.2280 H         1 UNK         0.0812 
    123 H123       31.9284    3.8640  -12.2179 H         1 UNK         0.0812 
    124 H124       30.2016    4.1536  -12.3377 H         1 UNK         0.0812 
    125 H125       30.4767    0.1494   -9.9400 H         1 UNK         0.3205 
    126 H126       33.0812   -0.9846  -10.7787 H         1 UNK         0.0754 
    127 H127       32.1809   -3.0301   -9.5803 H         1 UNK         0.0769 
    128 H128       31.1892   -2.5044  -10.9331 H         1 UNK         0.0769 
    129 H129       30.6833   -2.1536   -9.2875 H         1 UNK         0.0769 
    130 H130       31.2902    0.0204   -7.8459 H         1 UNK         0.2981 
    131 H131       33.7600    0.0386   -6.2415 H         1 UNK         0.0541 
    132 H132       34.4458    3.5330   -6.2877 H         1 UNK         0.3459 
    133 H133       34.7526    2.0216   -5.4719 H         1 UNK         0.3459 
    134 H134       31.2996   -0.5364   -5.3521 H         1 UNK         0.0612 
    135 H135       31.1047    1.1773   -5.2780 H         1 UNK         0.0612 
    136 H136       34.1990   -1.2309   -2.7491 H         1 UNK         0.0624 
    137 H137       34.0978   -1.4011   -4.4783 H         1 UNK         0.0624 
@<TRIPOS>BOND
     1    1    2 1    
     2    1   72 1    
     3    1   73 1    
     4    1   74 1    
     5    2    3 2    
     6    2    4 am   BACKBONE|DICT|INTERRES
     7    4    5 1    
     8    4   75 1    
     9    5    6 1    
    10    5   35 1    
    11    5   76 1    
    12    6    7 1    
    13    6   77 1    
    14    6   78 1    
    15    7    8 1    
    16    8    9 1    
    17    8   79 1    
    18    8   80 1    
    19    9   10 ar   
    20    9   14 ar   
    21   10   11 ar   
    22   10   81 1    
    23   11   12 ar   
    24   11   71 1    
    25   12   13 ar   
    26   12   82 1    
    27   13   14 ar   
    28   13   15 1    
    29   14   83 1    
    30   15   16 1    
    31   15   84 1    
    32   15   85 1    
    33   16   17 1    
    34   17   18 1    
    35   17   86 1    
    36   17   87 1    
    37   18   19 1    
    38   18   37 1    
    39   18   88 1    
    40   19   20 am   BACKBONE|DICT|INTERRES
    41   19   89 1    
    42   20   21 2    
    43   20   22 1    
    44   22   23 1    
    45   22   24 1    
    46   22   90 1    
    47   23   91 1    
    48   23   92 1    
    49   23   93 1    
    50   24   25 am   BACKBONE|DICT|INTERRES
    51   24   94 1    
    52   25   26 2    
    53   25   27 1    
    54   27   28 1    
    55   27   29 1    
    56   27   95 1    
    57   28   96 1    
    58   28   97 1    
    59   28   98 1    
    60   29   30 am   BACKBONE|DICT|INTERRES
    61   29   99 1    
    62   30   31 2    
    63   30   32 1    
    64   32   33 1    
    65   32   34 1    
    66   32  100 1    
    67   33  101 1    
    68   33  102 1    
    69   33  103 1    
    70   34   35 am   BACKBONE|DICT|INTERRES
    71   34  104 1    
    72   35   36 2    
    73   37   38 2    
    74   37   39 am   BACKBONE|DICT|INTERRES
    75   39   40 1    
    76   39  105 1    
    77   40   41 1    
    78   40   42 1    
    79   40  106 1    
    80   41  107 1    
    81   41  108 1    
    82   41  109 1    
    83   42   43 2    
    84   42   44 am   BACKBONE|DICT|INTERRES
    85   44   45 1    
    86   44  110 1    
    87   45   46 1    
    88   45   47 1    
    89   45  111 1    
    90   46  112 1    
    91   46  113 1    
    92   46  114 1    
    93   47   48 2    
    94   47   49 am   BACKBONE|DICT|INTERRES
    95   49   50 1    
    96   49  115 1    
    97   50   51 1    
    98   50   52 1    
    99   50  116 1    
   100   51  117 1    
   101   51  118 1    
   102   51  119 1    
   103   52   53 2    
   104   52   54 am   BACKBONE|DICT|INTERRES
   105   54   55 1    
   106   54  120 1    
   107   55   56 1    
   108   55   57 1    
   109   55  121 1    
   110   56  122 1    
   111   56  123 1    
   112   56  124 1    
   113   57   58 2    
   114   57   59 am   BACKBONE|DICT|INTERRES
   115   59   60 1    
   116   59  125 1    
   117   60   61 1    
   118   60   62 1    
   119   60  126 1    
   120   61  127 1    
   121   61  128 1    
   122   61  129 1    
   123   62   63 2    
   124   62   64 am   BACKBONE|DICT|INTERRES
   125   64   65 1    
   126   64  130 1    
   127   65   66 1    
   128   65   69 1    
   129   65  131 1    
   130   66   67 am   BACKBONE|DICT|INTERRES
   131   66   68 2    
   132   67  132 1    
   133   67  133 1    
   134   69   70 1    
   135   69  134 1    
   136   69  135 1    
   137   70   71 1    
   138   71  136 1    
   139   71  137 1    
@<TRIPOS>SUBSTRUCTURE
     1 UNK         1 GROUP             0       ****    0 ROOT    
