@<TRIPOS>MOLECULE
3R137
137   139    1
SMALL
USER_CHARGES


@<TRIPOS>ATOM
      1 CA         24.2556   -6.5122   -1.7175 C.3       0 UNK        -0.2020 
      2 C          25.3777   -5.4952   -1.8547 C.2       0 UNK         0.4855 
      3 O          25.6709   -5.0588   -2.9676 O.2       0 UNK        -0.5197 
      4 N          25.9953   -5.1002   -0.7311 N.am      1 UNK        -0.4892 
      5 CA         27.1095   -4.1429   -0.6511 C.3       1 UNK         0.0835 
      6 C6         28.4124   -4.7224   -1.2676 C.3       12 UNK        -0.0855 
      7 S7         29.9290   -4.0395   -0.5163 S.3       12 UNK        -0.2931 
      8 C8         30.9900   -3.7326   -1.9772 C.3       12 UNK         0.0378 
      9 C9         31.1386   -2.2724   -2.4179 C.ar      12 UNK        -0.0802 
     10 C10        31.8717   -2.0081   -3.5808 C.ar      12 UNK        -0.0944 
     11 C11        32.0995   -0.6954   -4.0046 C.ar      12 UNK        -0.0787 
     12 C12        31.5936    0.3663   -3.2523 C.ar      12 UNK        -0.0862 
     13 C13        30.8443    0.1252   -2.0984 C.ar      12 UNK        -0.0733 
     14 C14        30.6180   -1.1933   -1.6885 C.ar      12 UNK        -0.0832 
     15 C15        30.2914    1.2905   -1.2855 C.3       12 UNK         0.0240 
     16 S16        29.1467    2.3389   -2.2436 S.3       12 UNK        -0.2522 
     17 C17        27.8967    1.1220   -2.7693 C.3       12 UNK        -0.0967 
     18 CA         28.0515    0.7360   -4.2644 C.3       5 UNK         0.0660 
     19 N          27.6933   -0.6672   -4.5059 N.am      5 UNK        -0.4015 
     20 C          27.7572   -1.3016   -5.6876 C.2       4 UNK         0.4946 
     21 O          28.1212   -0.7730   -6.7369 O.2       4 UNK        -0.5353 
     22 CA         27.2769   -2.7620   -5.7118 C.3       4 UNK         0.0277 
     23 CB         28.3222   -3.6938   -5.0810 C.3       4 UNK        -0.1981 
     24 N          25.9939   -2.9093   -5.0218 N.am      4 UNK        -0.4209 
     25 C          24.8359   -2.4079   -5.4771 C.2       3 UNK         0.4942 
     26 O          24.7000   -1.8960   -6.5882 O.2       3 UNK        -0.5208 
     27 CA         23.6340   -2.4391   -4.5182 C.3       3 UNK         0.0250 
     28 CB         22.8622   -3.7630   -4.6386 C.3       3 UNK        -0.1990 
     29 N          24.0222   -2.2065   -3.1240 N.am      3 UNK        -0.4232 
     30 C          24.4960   -1.0412   -2.6581 C.2       2 UNK         0.4993 
     31 O          24.6216   -0.0300   -3.3476 O.2       2 UNK        -0.5286 
     32 CA         24.9408   -1.0023   -1.1862 C.3       2 UNK         0.0209 
     33 CB         23.7555   -0.6480   -0.2745 C.3       2 UNK        -0.1931 
     34 N          25.5545   -2.2532   -0.7300 N.am      2 UNK        -0.4546 
     35 C          26.6987   -2.7615   -1.2123 C.2       1 UNK         0.5154 
     36 O          27.3575   -2.2136   -2.0973 O.2       1 UNK        -0.5181 
     37 C          27.2923    1.7240   -5.1744 C.2       5 UNK         0.5014 
     38 O          27.8945    2.6710   -5.6834 O.2       5 UNK        -0.5248 
     39 N          25.9969    1.4588   -5.4009 N.am      6 UNK        -0.4434 
     40 CA         25.0983    2.2225   -6.2721 C.3       6 UNK         0.0363 
     41 CB         23.6823    1.6321   -6.1749 C.3       6 UNK        -0.1936 
     42 C          25.5383    2.3268   -7.7468 C.2       6 UNK         0.5081 
     43 O          25.0443    3.2121   -8.4462 O.2       6 UNK        -0.5248 
     44 N          26.4605    1.4636   -8.2010 N.am      7 UNK        -0.4718 
     45 CA         27.0933    1.5631   -9.5202 C.3       7 UNK         0.0273 
     46 CB         27.8029    0.2403   -9.8475 C.3       7 UNK        -0.1935 
     47 C          28.0884    2.7349   -9.6303 C.2       7 UNK         0.5018 
     48 O          28.4192    3.1248  -10.7501 O.2       7 UNK        -0.5186 
     49 N          28.5657    3.2567   -8.4877 N.am      8 UNK        -0.4240 
     50 CA         29.5126    4.3665   -8.2931 C.3       8 UNK         0.0235 
     51 CB         28.9811    5.6756   -8.9092 C.3       8 UNK        -0.2000 
     52 C          30.9609    4.0900   -8.7424 C.2       8 UNK         0.4941 
     53 O          31.8845    4.6254   -8.1276 O.2       8 UNK        -0.5273 
     54 N          31.1476    3.2666   -9.7762 N.am      9 UNK        -0.4262 
     55 CA         32.4278    2.7912  -10.2868 C.3       9 UNK         0.0264 
     56 CB         32.8557    3.6589  -11.4826 C.3       9 UNK        -0.1955 
     57 C          32.2667    1.3237  -10.6973 C.2       9 UNK         0.5031 
     58 O          31.1418    0.8791  -10.9462 O.2       9 UNK        -0.5390 
     59 N          33.3922    0.5976  -10.7529 N.am      10 UNK        -0.4204 
     60 CA         33.5507   -0.8325  -11.0689 C.3       10 UNK         0.0237 
     61 CB         33.0505   -1.1651  -12.4891 C.3       10 UNK        -0.1985 
     62 C          32.9410   -1.7862  -10.0235 C.2       10 UNK         0.4970 
     63 O          33.6211   -2.7229   -9.6036 O.2       10 UNK        -0.4914 
     64 N          31.6954   -1.5196   -9.6140 N.am      11 UNK        -0.4285 
     65 CA         30.9446   -2.2137   -8.5541 C.3       11 UNK         0.1007 
     66 C          30.6052   -3.7011   -8.8754 C.2       11 UNK         0.5703 
     67 N          30.5513   -4.0994  -10.1414 N.am      11 UNK        -0.7361 
     68 O          30.3654   -4.5044   -7.9779 O.2       11 UNK        -0.4986 
     69 C69        31.5716   -2.0147   -7.1433 C.3       12 UNK        -0.0947 
     70 S70        31.8403   -0.2579   -6.7254 S.3       12 UNK        -0.2240 
     71 C71        32.9083   -0.4132   -5.2620 C.3       12 UNK         0.0194 
     72 H72        24.4842   -7.4010   -2.3050 H         1 UNK         0.0906 
     73 H73        24.1055   -6.8190   -0.6826 H         1 UNK         0.0906 
     74 H74        23.3207   -6.0918   -2.0868 H         1 UNK         0.0906 
     75 H75        25.6982   -5.4905    0.1535 H         1 UNK         0.3140 
     76 H76        27.2865   -3.9896    0.4150 H         1 UNK         0.1085 
     77 H77        28.4173   -4.6117   -2.3500 H         1 UNK         0.0836 
     78 H78        28.4514   -5.7990   -1.0945 H         1 UNK         0.0836 
     79 H79        30.6450   -4.3334   -2.8195 H         1 UNK         0.0731 
     80 H80        31.9861   -4.1063   -1.7362 H         1 UNK         0.0731 
     81 H81        32.2796   -2.8292   -4.1546 H         1 UNK         0.1312 
     82 H82        31.7697    1.3842   -3.5727 H         1 UNK         0.1406 
     83 H83        30.0435   -1.3682   -0.7906 H         1 UNK         0.1631 
     84 H84        31.1219    1.9047   -0.9350 H         1 UNK         0.0717 
     85 H85        29.7761    0.9335   -0.3924 H         1 UNK         0.0717 
     86 H86        28.0015    0.2456   -2.1313 H         1 UNK         0.0934 
     87 H87        26.9012    1.5142   -2.5509 H         1 UNK         0.0934 
     88 H88        29.1054    0.8046   -4.5407 H         1 UNK         0.0739 
     89 H89        27.4315   -1.2105   -3.6862 H         1 UNK         0.3093 
     90 H90        27.1357   -3.0620   -6.7525 H         1 UNK         0.0818 
     91 H91        29.1873   -3.7994   -5.7324 H         1 UNK         0.0819 
     92 H92        28.6876   -3.3044   -4.1318 H         1 UNK         0.0819 
     93 H93        27.9233   -4.6939   -4.9108 H         1 UNK         0.0819 
     94 H94        26.0024   -3.3814   -4.1227 H         1 UNK         0.3041 
     95 H95        22.9610   -1.6304   -4.8123 H         1 UNK         0.0784 
     96 H96        22.5115   -3.9136   -5.6605 H         1 UNK         0.0793 
     97 H97        23.4811   -4.6221   -4.3807 H         1 UNK         0.0793 
     98 H98        21.9850   -3.7728   -3.9916 H         1 UNK         0.0793 
     99 H99        23.9894   -2.9989   -2.5000 H         1 UNK         0.3024 
    100 H100       25.6888   -0.2123   -1.0939 H         1 UNK         0.1171 
    101 H101       24.0738   -0.5250    0.7609 H         1 UNK         0.0786 
    102 H102       23.2945    0.2917   -0.5830 H         1 UNK         0.0786 
    103 H103       22.9803   -1.4149   -0.2998 H         1 UNK         0.0786 
    104 H104       25.0578   -2.7748   -0.0219 H         1 UNK         0.2977 
    105 H105       25.5691    0.7020   -4.8727 H         1 UNK         0.3127 
    106 H106       25.0681    3.2413   -5.8811 H         1 UNK         0.0770 
    107 H107       23.6529    0.6005   -6.5264 H         1 UNK         0.0814 
    108 H108       22.9765    2.2029   -6.7798 H         1 UNK         0.0814 
    109 H109       23.3136    1.6479   -5.1492 H         1 UNK         0.0814 
    110 H110       26.8303    0.7577   -7.5721 H         1 UNK         0.2983 
    111 H111       26.3103    1.7247  -10.2643 H         1 UNK         0.0947 
    112 H112       28.1804    0.2435  -10.8710 H         1 UNK         0.0806 
    113 H113       27.1327   -0.6135   -9.7471 H         1 UNK         0.0806 
    114 H114       28.6585    0.0791   -9.1920 H         1 UNK         0.0806 
    115 H115       28.2367    2.8443   -7.6179 H         1 UNK         0.3000 
    116 H116       29.5556    4.5115   -7.2122 H         1 UNK         0.0850 
    117 H117       29.6280    6.5155   -8.6523 H         1 UNK         0.0810 
    118 H118       27.9827    5.9104   -8.5402 H         1 UNK         0.0810 
    119 H119       28.9349    5.6261   -9.9974 H         1 UNK         0.0810 
    120 H120       30.3311    2.8628  -10.2282 H         1 UNK         0.3040 
    121 H121       33.1838    2.8477   -9.5005 H         1 UNK         0.0766 
    122 H122       32.9696    4.7034  -11.1919 H         1 UNK         0.0812 
    123 H123       32.1253    3.6151  -12.2917 H         1 UNK         0.0812 
    124 H124       33.8133    3.3292  -11.8873 H         1 UNK         0.0812 
    125 H125       34.2531    1.0664  -10.5047 H         1 UNK         0.3205 
    126 H126       34.6270   -1.0129  -11.0581 H         1 UNK         0.0754 
    127 H127       33.2678   -2.2033  -12.7436 H         1 UNK         0.0769 
    128 H128       33.5389   -0.5397  -13.2364 H         1 UNK         0.0769 
    129 H129       31.9737   -1.0269  -12.5901 H         1 UNK         0.0769 
    130 H130       31.2365   -0.7159  -10.0369 H         1 UNK         0.2981 
    131 H131       29.9718   -1.7250   -8.5304 H         1 UNK         0.0541 
    132 H132       30.7394   -3.4513  -10.8890 H         1 UNK         0.3459 
    133 H133       30.3262   -5.0597  -10.3470 H         1 UNK         0.3459 
    134 H134       30.9216   -2.4324   -6.3750 H         1 UNK         0.0612 
    135 H135       32.5199   -2.5490   -7.0711 H         1 UNK         0.0612 
    136 H136       33.6549   -1.1920   -5.4240 H         1 UNK         0.0624 
    137 H137       33.4647    0.5171   -5.1392 H         1 UNK         0.0624 
@<TRIPOS>BOND
     1    1    2 1    
     2    1   72 1    
     3    1   73 1    
     4    1   74 1    
     5    2    3 2    
     6    2    4 am   BACKBONE|DICT|INTERRES
     7    4    5 1    
     8    4   75 1    
     9    5    6 1    
    10    5   35 1    
    11    5   76 1    
    12    6    7 1    
    13    6   77 1    
    14    6   78 1    
    15    7    8 1    
    16    8    9 1    
    17    8   79 1    
    18    8   80 1    
    19    9   10 ar   
    20    9   14 ar   
    21   10   11 ar   
    22   10   81 1    
    23   11   12 ar   
    24   11   71 1    
    25   12   13 ar   
    26   12   82 1    
    27   13   14 ar   
    28   13   15 1    
    29   14   83 1    
    30   15   16 1    
    31   15   84 1    
    32   15   85 1    
    33   16   17 1    
    34   17   18 1    
    35   17   86 1    
    36   17   87 1    
    37   18   19 1    
    38   18   37 1    
    39   18   88 1    
    40   19   20 am   BACKBONE|DICT|INTERRES
    41   19   89 1    
    42   20   21 2    
    43   20   22 1    
    44   22   23 1    
    45   22   24 1    
    46   22   90 1    
    47   23   91 1    
    48   23   92 1    
    49   23   93 1    
    50   24   25 am   BACKBONE|DICT|INTERRES
    51   24   94 1    
    52   25   26 2    
    53   25   27 1    
    54   27   28 1    
    55   27   29 1    
    56   27   95 1    
    57   28   96 1    
    58   28   97 1    
    59   28   98 1    
    60   29   30 am   BACKBONE|DICT|INTERRES
    61   29   99 1    
    62   30   31 2    
    63   30   32 1    
    64   32   33 1    
    65   32   34 1    
    66   32  100 1    
    67   33  101 1    
    68   33  102 1    
    69   33  103 1    
    70   34   35 am   BACKBONE|DICT|INTERRES
    71   34  104 1    
    72   35   36 2    
    73   37   38 2    
    74   37   39 am   BACKBONE|DICT|INTERRES
    75   39   40 1    
    76   39  105 1    
    77   40   41 1    
    78   40   42 1    
    79   40  106 1    
    80   41  107 1    
    81   41  108 1    
    82   41  109 1    
    83   42   43 2    
    84   42   44 am   BACKBONE|DICT|INTERRES
    85   44   45 1    
    86   44  110 1    
    87   45   46 1    
    88   45   47 1    
    89   45  111 1    
    90   46  112 1    
    91   46  113 1    
    92   46  114 1    
    93   47   48 2    
    94   47   49 am   BACKBONE|DICT|INTERRES
    95   49   50 1    
    96   49  115 1    
    97   50   51 1    
    98   50   52 1    
    99   50  116 1    
   100   51  117 1    
   101   51  118 1    
   102   51  119 1    
   103   52   53 2    
   104   52   54 am   BACKBONE|DICT|INTERRES
   105   54   55 1    
   106   54  120 1    
   107   55   56 1    
   108   55   57 1    
   109   55  121 1    
   110   56  122 1    
   111   56  123 1    
   112   56  124 1    
   113   57   58 2    
   114   57   59 am   BACKBONE|DICT|INTERRES
   115   59   60 1    
   116   59  125 1    
   117   60   61 1    
   118   60   62 1    
   119   60  126 1    
   120   61  127 1    
   121   61  128 1    
   122   61  129 1    
   123   62   63 2    
   124   62   64 am   BACKBONE|DICT|INTERRES
   125   64   65 1    
   126   64  130 1    
   127   65   66 1    
   128   65   69 1    
   129   65  131 1    
   130   66   67 am   BACKBONE|DICT|INTERRES
   131   66   68 2    
   132   67  132 1    
   133   67  133 1    
   134   69   70 1    
   135   69  134 1    
   136   69  135 1    
   137   70   71 1    
   138   71  136 1    
   139   71  137 1    
@<TRIPOS>SUBSTRUCTURE
     1 UNK         1 GROUP             0       ****    0 ROOT    
