@<TRIPOS>MOLECULE
3R137
137   139    1
SMALL
USER_CHARGES


@<TRIPOS>ATOM
      1 CA         27.4323   -6.6717    0.1602 C.3       0 UNK        -0.2020 
      2 C          27.3962   -5.2244   -0.3055 C.2       0 UNK         0.4855 
      3 O          27.3410   -4.9757   -1.5085 O.2       0 UNK        -0.5197 
      4 N          27.4134   -4.2742    0.6400 N.am      1 UNK        -0.4892 
      5 CA         27.4225   -2.8069    0.4765 C.3       1 UNK         0.0835 
      6 C6         28.5994   -2.2424   -0.3660 C.3       12 UNK        -0.0855 
      7 S7         30.2288   -2.9455    0.0735 S.3       12 UNK        -0.2931 
      8 C8         31.3237   -2.1634   -1.1661 C.3       12 UNK         0.0378 
      9 C9         31.0013   -2.4447   -2.6376 C.ar      12 UNK        -0.0802 
     10 C10        31.5639   -1.6099   -3.6080 C.ar      12 UNK        -0.0944 
     11 C11        31.2842   -1.7972   -4.9640 C.ar      12 UNK        -0.0787 
     12 C12        30.4283   -2.8303   -5.3564 C.ar      12 UNK        -0.0862 
     13 C13        29.8439   -3.6646   -4.4005 C.ar      12 UNK        -0.0733 
     14 C14        30.1613   -3.4884   -3.0508 C.ar      12 UNK        -0.0832 
     15 C15        28.8504   -4.7430   -4.8102 C.3       12 UNK         0.0240 
     16 S16        27.1654   -4.0673   -5.0195 S.3       12 UNK        -0.2522 
     17 C17        27.0545   -3.8406   -6.8283 C.3       12 UNK        -0.0967 
     18 CA         26.6372   -2.4277   -7.3055 C.3       5 UNK         0.0660 
     19 N          25.3004   -2.0115   -6.8690 N.am      5 UNK        -0.4015 
     20 C          24.6099   -1.0315   -7.4744 C.2       4 UNK         0.4946 
     21 O          25.0310   -0.3939   -8.4404 O.2       4 UNK        -0.5353 
     22 CA         23.2336   -0.6761   -6.8931 C.3       4 UNK         0.0277 
     23 CB         22.2415   -1.8414   -7.0487 C.3       4 UNK        -0.1981 
     24 N          23.2975   -0.2604   -5.4925 N.am      4 UNK        -0.4209 
     25 C          23.9947    0.7852   -5.0227 C.2       3 UNK         0.4942 
     26 O          24.6746    1.5351   -5.7222 O.2       3 UNK        -0.5208 
     27 CA         23.9384    1.0267   -3.5044 C.3       3 UNK         0.0250 
     28 CB         22.7977    1.9969   -3.1582 C.3       3 UNK        -0.1990 
     29 N          23.7933   -0.2008   -2.7151 N.am      3 UNK        -0.4232 
     30 C          24.6823   -1.2031   -2.6966 C.2       2 UNK         0.4993 
     31 O          25.7094   -1.2251   -3.3802 O.2       2 UNK        -0.5286 
     32 CA         24.3363   -2.4016   -1.8013 C.3       2 UNK         0.0209 
     33 CB         23.7772   -3.5591   -2.6445 C.3       2 UNK        -0.1931 
     34 N          25.5202   -2.8623   -1.0827 N.am      2 UNK        -0.4546 
     35 C          26.0855   -2.2372   -0.0437 C.2       1 UNK         0.5154 
     36 O          25.5928   -1.2497    0.5047 O.2       1 UNK        -0.5181 
     37 C          27.7014   -1.3534   -7.0232 C.2       5 UNK         0.5014 
     38 O          28.6013   -1.1876   -7.8492 O.2       5 UNK        -0.5248 
     39 N          27.5554   -0.6160   -5.9091 N.am      6 UNK        -0.4434 
     40 CA         28.4103    0.5165   -5.5496 C.3       6 UNK         0.0363 
     41 CB         28.0063    1.0817   -4.1808 C.3       6 UNK        -0.1936 
     42 C          28.4297    1.6110   -6.6272 C.2       6 UNK         0.5081 
     43 O          29.5114    2.0269   -7.0441 O.2       6 UNK        -0.5248 
     44 N          27.2396    2.0175   -7.0899 N.am      7 UNK        -0.4718 
     45 CA         27.0669    2.9793   -8.1776 C.3       7 UNK         0.0273 
     46 CB         25.6055    3.4534   -8.2184 C.3       7 UNK        -0.1935 
     47 C          27.4907    2.4216   -9.5457 C.2       7 UNK         0.5018 
     48 O          28.1239    3.1477  -10.3124 O.2       7 UNK        -0.5186 
     49 N          27.1262    1.1630   -9.8362 N.am      8 UNK        -0.4240 
     50 CA         27.3831    0.5138  -11.1242 C.3       8 UNK         0.0235 
     51 CB         26.5745   -0.7880  -11.2378 C.3       8 UNK        -0.2000 
     52 C          28.8716    0.2510  -11.3960 C.2       8 UNK         0.4941 
     53 O          29.3471    0.5928  -12.4800 O.2       8 UNK        -0.5273 
     54 N          29.5764   -0.3594  -10.4317 N.am      9 UNK        -0.4262 
     55 CA         30.9947   -0.7020  -10.5764 C.3       9 UNK         0.0264 
     56 CB         31.3209   -1.9654   -9.7635 C.3       9 UNK        -0.1955 
     57 C          31.9399    0.4659  -10.2432 C.2       9 UNK         0.5031 
     58 O          33.0650    0.4630  -10.7448 O.2       9 UNK        -0.5390 
     59 N          31.4715    1.4449   -9.4486 N.am      10 UNK        -0.4204 
     60 CA         32.1457    2.7060   -9.1018 C.3       10 UNK         0.0237 
     61 CB         32.1822    3.6436  -10.3274 C.3       10 UNK        -0.1985 
     62 C          33.5339    2.4931   -8.4652 C.2       10 UNK         0.4970 
     63 O          34.5360    3.0093   -8.9644 O.2       10 UNK        -0.4914 
     64 N          33.5589    1.7036   -7.3853 N.am      11 UNK        -0.4285 
     65 CA         34.7765    1.2454   -6.6909 C.3       11 UNK         0.1007 
     66 C          35.5841    2.3547   -5.9547 C.2       11 UNK         0.5703 
     67 N          35.0296    3.5380   -5.7189 N.am      11 UNK        -0.7361 
     68 O          36.7377    2.1351   -5.5928 O.2       11 UNK        -0.4986 
     69 C69        34.4882    0.0573   -5.7310 C.3       12 UNK        -0.0947 
     70 S70        33.5318   -1.2881   -6.5123 S.3       12 UNK        -0.2240 
     71 C71        31.8471   -0.8366   -5.9975 C.3       12 UNK         0.0194 
     72 H72        28.3063   -7.1747   -0.2529 H         1 UNK         0.0906 
     73 H73        27.4769   -6.7519    1.2461 H         1 UNK         0.0906 
     74 H74        26.5422   -7.1980   -0.1834 H         1 UNK         0.0906 
     75 H75        27.4332   -4.5739    1.6053 H         1 UNK         0.3140 
     76 H76        27.5423   -2.4150    1.4882 H         1 UNK         0.1085 
     77 H77        28.4070   -2.4072   -1.4262 H         1 UNK         0.0836 
     78 H78        28.6575   -1.1588   -0.2452 H         1 UNK         0.0836 
     79 H79        31.3077   -1.0859   -0.9938 H         1 UNK         0.0731 
     80 H80        32.3460   -2.4900   -0.9715 H         1 UNK         0.0731 
     81 H81        32.2125   -0.7987   -3.3065 H         1 UNK         0.1312 
     82 H82        30.1902   -2.9628   -6.4027 H         1 UNK         0.1406 
     83 H83        29.7147   -4.1499   -2.3222 H         1 UNK         0.1631 
     84 H84        29.1870   -5.2459   -5.7174 H         1 UNK         0.0717 
     85 H85        28.8093   -5.5170   -4.0420 H         1 UNK         0.0717 
     86 H86        28.0025   -4.1129   -7.2951 H         1 UNK         0.0934 
     87 H87        26.3355   -4.5707   -7.2030 H         1 UNK         0.0934 
     88 H88        26.5849   -2.5022   -8.3932 H         1 UNK         0.0739 
     89 H89        24.9245   -2.4648   -6.0490 H         1 UNK         0.3093 
     90 H90        22.8495    0.1710   -7.4657 H         1 UNK         0.0818 
     91 H91        21.2342   -1.5440   -6.7564 H         1 UNK         0.0819 
     92 H92        22.1891   -2.1722   -8.0871 H         1 UNK         0.0819 
     93 H93        22.5231   -2.7049   -6.4451 H         1 UNK         0.0819 
     94 H94        22.7707   -0.8098   -4.8302 H         1 UNK         0.3041 
     95 H95        24.8794    1.4945   -3.2107 H         1 UNK         0.0784 
     96 H96        22.8968    2.9292   -3.7165 H         1 UNK         0.0793 
     97 H97        21.8203    1.5763   -3.3981 H         1 UNK         0.0793 
     98 H98        22.8028    2.2551   -2.0990 H         1 UNK         0.0793 
     99 H99        22.9726   -0.2639   -2.1295 H         1 UNK         0.3024 
    100 H100       23.5827   -2.1028   -1.0691 H         1 UNK         0.1171 
    101 H101       23.5073   -4.4100   -2.0187 H         1 UNK         0.0786 
    102 H102       22.8792   -3.2555   -3.1839 H         1 UNK         0.0786 
    103 H103       24.5020   -3.9054   -3.3827 H         1 UNK         0.0786 
    104 H104       26.0392   -3.6384   -1.4886 H         1 UNK         0.2977 
    105 H105       26.8139   -0.8508   -5.2579 H         1 UNK         0.3127 
    106 H106       29.4225    0.1354   -5.4541 H         1 UNK         0.0770 
    107 H107       26.9951    1.4848   -4.1943 H         1 UNK         0.0814 
    108 H108       28.6755    1.8890   -3.8808 H         1 UNK         0.0814 
    109 H109       28.0542    0.3153   -3.4065 H         1 UNK         0.0814 
    110 H110       26.3903    1.6422   -6.6743 H         1 UNK         0.2983 
    111 H111       27.6988    3.8445   -7.9646 H         1 UNK         0.0947 
    112 H112       25.4518    4.1829   -9.0147 H         1 UNK         0.0806 
    113 H113       25.3179    3.9296   -7.2809 H         1 UNK         0.0806 
    114 H114       24.9182    2.6244   -8.3945 H         1 UNK         0.0806 
    115 H115       26.5610    0.6467   -9.1671 H         1 UNK         0.3000 
    116 H116       27.0260    1.1903  -11.9040 H         1 UNK         0.0850 
    117 H117       26.7323   -1.2625  -12.2072 H         1 UNK         0.0810 
    118 H118       25.5050   -0.6008  -11.1404 H         1 UNK         0.0810 
    119 H119       26.8607   -1.5085  -10.4726 H         1 UNK         0.0810 
    120 H120       29.1245   -0.6141   -9.5542 H         1 UNK         0.3040 
    121 H121       31.1859   -0.9535  -11.6222 H         1 UNK         0.0766 
    122 H122       30.8227   -2.8382  -10.1852 H         1 UNK         0.0812 
    123 H123       31.0055   -1.8829   -8.7278 H         1 UNK         0.0812 
    124 H124       32.3920   -2.1724   -9.7654 H         1 UNK         0.0812 
    125 H125       30.5439    1.3355   -9.0576 H         1 UNK         0.3205 
    126 H126       31.5309    3.1907   -8.3424 H         1 UNK         0.0754 
    127 H127       32.6008    4.6159  -10.0645 H         1 UNK         0.0769 
    128 H128       31.1797    3.8176  -10.7195 H         1 UNK         0.0769 
    129 H129       32.7905    3.2332  -11.1343 H         1 UNK         0.0769 
    130 H130       32.6886    1.3213   -7.0506 H         1 UNK         0.2981 
    131 H131       35.4426    0.8693   -7.4699 H         1 UNK         0.0541 
    132 H132       34.0868    3.7296   -6.0164 H         1 UNK         0.3459 
    133 H133       35.5648    4.2482   -5.2447 H         1 UNK         0.3459 
    134 H134       35.4278   -0.3759   -5.3834 H         1 UNK         0.0612 
    135 H135       33.9716    0.3990   -4.8323 H         1 UNK         0.0612 
    136 H136       31.1998   -0.8023   -6.8711 H         1 UNK         0.0624 
    137 H137       31.8272    0.1768   -5.5952 H         1 UNK         0.0624 
@<TRIPOS>BOND
     1    1    2 1    
     2    1   72 1    
     3    1   73 1    
     4    1   74 1    
     5    2    3 2    
     6    2    4 am   BACKBONE|DICT|INTERRES
     7    4    5 1    
     8    4   75 1    
     9    5    6 1    
    10    5   35 1    
    11    5   76 1    
    12    6    7 1    
    13    6   77 1    
    14    6   78 1    
    15    7    8 1    
    16    8    9 1    
    17    8   79 1    
    18    8   80 1    
    19    9   10 ar   
    20    9   14 ar   
    21   10   11 ar   
    22   10   81 1    
    23   11   12 ar   
    24   11   71 1    
    25   12   13 ar   
    26   12   82 1    
    27   13   14 ar   
    28   13   15 1    
    29   14   83 1    
    30   15   16 1    
    31   15   84 1    
    32   15   85 1    
    33   16   17 1    
    34   17   18 1    
    35   17   86 1    
    36   17   87 1    
    37   18   19 1    
    38   18   37 1    
    39   18   88 1    
    40   19   20 am   BACKBONE|DICT|INTERRES
    41   19   89 1    
    42   20   21 2    
    43   20   22 1    
    44   22   23 1    
    45   22   24 1    
    46   22   90 1    
    47   23   91 1    
    48   23   92 1    
    49   23   93 1    
    50   24   25 am   BACKBONE|DICT|INTERRES
    51   24   94 1    
    52   25   26 2    
    53   25   27 1    
    54   27   28 1    
    55   27   29 1    
    56   27   95 1    
    57   28   96 1    
    58   28   97 1    
    59   28   98 1    
    60   29   30 am   BACKBONE|DICT|INTERRES
    61   29   99 1    
    62   30   31 2    
    63   30   32 1    
    64   32   33 1    
    65   32   34 1    
    66   32  100 1    
    67   33  101 1    
    68   33  102 1    
    69   33  103 1    
    70   34   35 am   BACKBONE|DICT|INTERRES
    71   34  104 1    
    72   35   36 2    
    73   37   38 2    
    74   37   39 am   BACKBONE|DICT|INTERRES
    75   39   40 1    
    76   39  105 1    
    77   40   41 1    
    78   40   42 1    
    79   40  106 1    
    80   41  107 1    
    81   41  108 1    
    82   41  109 1    
    83   42   43 2    
    84   42   44 am   BACKBONE|DICT|INTERRES
    85   44   45 1    
    86   44  110 1    
    87   45   46 1    
    88   45   47 1    
    89   45  111 1    
    90   46  112 1    
    91   46  113 1    
    92   46  114 1    
    93   47   48 2    
    94   47   49 am   BACKBONE|DICT|INTERRES
    95   49   50 1    
    96   49  115 1    
    97   50   51 1    
    98   50   52 1    
    99   50  116 1    
   100   51  117 1    
   101   51  118 1    
   102   51  119 1    
   103   52   53 2    
   104   52   54 am   BACKBONE|DICT|INTERRES
   105   54   55 1    
   106   54  120 1    
   107   55   56 1    
   108   55   57 1    
   109   55  121 1    
   110   56  122 1    
   111   56  123 1    
   112   56  124 1    
   113   57   58 2    
   114   57   59 am   BACKBONE|DICT|INTERRES
   115   59   60 1    
   116   59  125 1    
   117   60   61 1    
   118   60   62 1    
   119   60  126 1    
   120   61  127 1    
   121   61  128 1    
   122   61  129 1    
   123   62   63 2    
   124   62   64 am   BACKBONE|DICT|INTERRES
   125   64   65 1    
   126   64  130 1    
   127   65   66 1    
   128   65   69 1    
   129   65  131 1    
   130   66   67 am   BACKBONE|DICT|INTERRES
   131   66   68 2    
   132   67  132 1    
   133   67  133 1    
   134   69   70 1    
   135   69  134 1    
   136   69  135 1    
   137   70   71 1    
   138   71  136 1    
   139   71  137 1    
@<TRIPOS>SUBSTRUCTURE
     1 UNK         1 GROUP             0       ****    0 ROOT    
