@<TRIPOS>MOLECULE
3R137
137   139    1
SMALL
USER_CHARGES


@<TRIPOS>ATOM
      1 CA         25.4461   -5.6955    2.0030 C.3       0 UNK        -0.2020 
      2 C          25.7130   -4.2166    1.7663 C.2       0 UNK         0.4855 
      3 O          25.2364   -3.3792    2.5326 O.2       0 UNK        -0.5197 
      4 N          26.4738   -3.8896    0.7126 N.am      1 UNK        -0.4892 
      5 CA         26.8105   -2.5141    0.3160 C.3       1 UNK         0.0835 
      6 C6         27.9883   -2.4946   -0.6934 C.3       12 UNK        -0.0855 
      7 S7         29.0502   -1.0229   -0.5069 S.3       12 UNK        -0.2931 
      8 C8         30.6988   -1.7099   -0.8690 C.3       12 UNK         0.0378 
      9 C9         30.9307   -1.9012   -2.3632 C.ar      12 UNK        -0.0802 
     10 C10        31.6734   -0.9603   -3.0839 C.ar      12 UNK        -0.0944 
     11 C11        31.9368   -1.1550   -4.4430 C.ar      12 UNK        -0.0787 
     12 C12        31.4328   -2.2868   -5.0898 C.ar      12 UNK        -0.0862 
     13 C13        30.6858   -3.2320   -4.3830 C.ar      12 UNK        -0.0733 
     14 C14        30.4424   -3.0360   -3.0200 C.ar      12 UNK        -0.0832 
     15 C15        30.1784   -4.4886   -5.0736 C.3       12 UNK         0.0240 
     16 S16        28.4967   -4.2709   -5.7325 S.3       12 UNK        -0.2522 
     17 C17        28.8101   -3.6139   -7.4131 C.3       12 UNK        -0.0967 
     18 CA         28.0037   -2.3350   -7.7568 C.3       5 UNK         0.0660 
     19 N          26.5810   -2.4907   -7.4234 N.am      5 UNK        -0.4015 
     20 C          25.6033   -1.6018   -7.6390 C.2       4 UNK         0.4946 
     21 O          25.7873   -0.4984   -8.1519 O.2       4 UNK        -0.5353 
     22 CA         24.1943   -1.9660   -7.1529 C.3       4 UNK         0.0277 
     23 CB         24.0074   -3.4579   -6.8057 C.3       4 UNK        -0.1981 
     24 N          23.9316   -1.1643   -5.9641 N.am      4 UNK        -0.4209 
     25 C          22.9974   -0.2206   -5.8267 C.2       3 UNK         0.4942 
     26 O          22.1509    0.0388   -6.6839 O.2       3 UNK        -0.5208 
     27 CA         23.0259    0.5630   -4.4955 C.3       3 UNK         0.0250 
     28 CB         21.9276    1.6408   -4.4186 C.3       3 UNK        -0.1990 
     29 N          22.9244   -0.3018   -3.3147 N.am      3 UNK        -0.4232 
     30 C          23.8848   -1.1108   -2.8476 C.2       2 UNK         0.4993 
     31 O          24.9887   -1.2431   -3.3866 O.2       2 UNK        -0.5286 
     32 CA         23.5187   -1.9503   -1.6119 C.3       2 UNK         0.0209 
     33 CB         22.6172   -3.1306   -2.0136 C.3       2 UNK        -0.1931 
     34 N          24.7037   -2.4797   -0.9369 N.am      2 UNK        -0.4546 
     35 C          25.5857   -1.7519   -0.2368 C.2       1 UNK         0.5154 
     36 O          25.4492   -0.5493   -0.0035 O.2       1 UNK        -0.5181 
     37 C          28.6616   -1.0651   -7.1726 C.2       5 UNK         0.5014 
     38 O          29.5362   -0.4845   -7.8215 O.2       5 UNK        -0.5248 
     39 N          28.2130   -0.6425   -5.9830 N.am      6 UNK        -0.4434 
     40 CA         28.6463    0.5873   -5.3221 C.3       6 UNK         0.0363 
     41 CB         28.2094    0.5478   -3.8508 C.3       6 UNK        -0.1936 
     42 C          28.1148    1.8564   -6.0102 C.2       6 UNK         0.5081 
     43 O          28.8465    2.8415   -6.0986 O.2       6 UNK        -0.5248 
     44 N          26.8654    1.8136   -6.4969 N.am      7 UNK        -0.4718 
     45 CA         26.2200    2.9222   -7.2093 C.3       7 UNK         0.0273 
     46 CB         24.6931    2.7879   -7.1163 C.3       7 UNK        -0.1935 
     47 C          26.6670    2.9984   -8.6757 C.2       7 UNK         0.5018 
     48 O          26.8498    4.0982   -9.1979 O.2       7 UNK        -0.5186 
     49 N          26.8705    1.8294   -9.2995 N.am      8 UNK        -0.4240 
     50 CA         27.4427    1.6753  -10.6396 C.3       8 UNK         0.0235 
     51 CB         27.2328    0.2261  -11.1076 C.3       8 UNK        -0.2000 
     52 C          28.9357    2.0480  -10.7135 C.2       8 UNK         0.4941 
     53 O          29.4392    2.2614  -11.8168 O.2       8 UNK        -0.5273 
     54 N          29.6026    2.1137   -9.5502 N.am      9 UNK        -0.4262 
     55 CA         31.0184    2.4182   -9.3375 C.3       9 UNK         0.0264 
     56 CB         31.3480    3.8650   -9.7630 C.3       9 UNK        -0.1955 
     57 C          31.9288    1.3654   -9.9902 C.2       9 UNK         0.5031 
     58 O          32.7984    1.7052  -10.7947 O.2       9 UNK        -0.5390 
     59 N          31.7059    0.0946   -9.6242 N.am      10 UNK        -0.4204 
     60 CA         32.5015   -1.0525  -10.0785 C.3       10 UNK         0.0237 
     61 CB         31.7921   -2.3500   -9.6613 C.3       10 UNK        -0.1985 
     62 C          33.9518   -1.0438   -9.5545 C.2       10 UNK         0.4970 
     63 O          34.8215   -1.6572  -10.1742 O.2       10 UNK        -0.4914 
     64 N          34.1768   -0.3623   -8.4253 N.am      11 UNK        -0.4285 
     65 CA         35.4828   -0.1419   -7.7950 C.3       11 UNK         0.1007 
     66 C          36.3947    0.7731   -8.6555 C.2       11 UNK         0.5703 
     67 N          37.6571    0.4078   -8.8325 N.am      11 UNK        -0.7361 
     68 O          35.9790    1.8319   -9.1215 O.2       11 UNK        -0.4986 
     69 C69        35.3110    0.4403   -6.3683 C.3       12 UNK        -0.0947 
     70 S70        34.5252   -0.7512   -5.2367 S.3       12 UNK        -0.2240 
     71 C71        32.8020   -0.1691   -5.2078 C.3       12 UNK         0.0194 
     72 H72        25.8125   -5.9900    2.9861 H         1 UNK         0.0906 
     73 H73        24.3752   -5.8939    1.9652 H         1 UNK         0.0906 
     74 H74        25.9336   -6.3240    1.2579 H         1 UNK         0.0906 
     75 H75        26.8447   -4.6243    0.1261 H         1 UNK         0.3140 
     76 H76        27.1229   -1.9956    1.2259 H         1 UNK         0.1085 
     77 H77        28.6155   -3.3717   -0.5306 H         1 UNK         0.0836 
     78 H78        27.6453   -2.5646   -1.7285 H         1 UNK         0.0836 
     79 H79        31.4492   -1.0304   -0.4619 H         1 UNK         0.0731 
     80 H80        30.8386   -2.6544   -0.3410 H         1 UNK         0.0731 
     81 H81        32.0690   -0.0882   -2.5814 H         1 UNK         0.1312 
     82 H82        31.6448   -2.4414   -6.1381 H         1 UNK         0.1406 
     83 H83        29.8814   -3.7779   -2.4700 H         1 UNK         0.1631 
     84 H84        30.1638   -5.3146   -4.3608 H         1 UNK         0.0717 
     85 H85        30.8598   -4.7961   -5.8683 H         1 UNK         0.0717 
     86 H86        29.8778   -3.4533   -7.5638 H         1 UNK         0.0934 
     87 H87        28.5422   -4.4022   -8.1184 H         1 UNK         0.0934 
     88 H88        28.0456   -2.2128   -8.8405 H         1 UNK         0.0739 
     89 H89        26.3429   -3.3594   -6.9667 H         1 UNK         0.3093 
     90 H90        23.5021   -1.7072   -7.9569 H         1 UNK         0.0818 
     91 H91        22.9699   -3.6629   -6.5405 H         1 UNK         0.0819 
     92 H92        24.2483   -4.0967   -7.6567 H         1 UNK         0.0819 
     93 H93        24.6235   -3.7702   -5.9613 H         1 UNK         0.0819 
     94 H94        24.5538   -1.3031   -5.1693 H         1 UNK         0.3041 
     95 H95        23.9907    1.0729   -4.4524 H         1 UNK         0.0784 
     96 H96        21.9947    2.3319   -5.2600 H         1 UNK         0.0793 
     97 H97        20.9293    1.2017   -4.4376 H         1 UNK         0.0793 
     98 H98        22.0169    2.2348   -3.5089 H         1 UNK         0.0793 
     99 H99        22.0333   -0.2916   -2.8390 H         1 UNK         0.3024 
    100 H100       22.9815   -1.3109   -0.9075 H         1 UNK         0.1171 
    101 H101       21.6928   -2.7838   -2.4773 H         1 UNK         0.0786 
    102 H102       22.3349   -3.7275   -1.1459 H         1 UNK         0.0786 
    103 H103       23.1112   -3.7903   -2.7285 H         1 UNK         0.0786 
    104 H104       24.9081   -3.4570   -1.0813 H         1 UNK         0.2977 
    105 H105       27.5245   -1.2026   -5.5021 H         1 UNK         0.3127 
    106 H106       29.7373    0.6221   -5.3526 H         1 UNK         0.0770 
    107 H107       28.5830    1.4167   -3.3078 H         1 UNK         0.0814 
    108 H108       28.6009   -0.3380   -3.3520 H         1 UNK         0.0814 
    109 H109       27.1237    0.5365   -3.7460 H         1 UNK         0.0814 
    110 H110       26.3615    0.9379   -6.4665 H         1 UNK         0.2983 
    111 H111       26.5047    3.8614   -6.7290 H         1 UNK         0.0947 
    112 H112       24.1976    3.6016   -7.6477 H         1 UNK         0.0806 
    113 H113       24.3570    2.8314   -6.0814 H         1 UNK         0.0806 
    114 H114       24.3403    1.8533   -7.5539 H         1 UNK         0.0806 
    115 H115       26.6068    0.9720   -8.8148 H         1 UNK         0.3000 
    116 H116       26.9032    2.3407  -11.3168 H         1 UNK         0.0850 
    117 H117       27.5903    0.0889  -12.1290 H         1 UNK         0.0810 
    118 H118       26.1778   -0.0485  -11.0927 H         1 UNK         0.0810 
    119 H119       27.7720   -0.4798  -10.4758 H         1 UNK         0.0810 
    120 H120       29.0862    1.8713   -8.7156 H         1 UNK         0.3040 
    121 H121       31.1864    2.3484   -8.2613 H         1 UNK         0.0766 
    122 H122       32.3773    4.1196   -9.5075 H         1 UNK         0.0812 
    123 H123       30.7008    4.5825   -9.2586 H         1 UNK         0.0812 
    124 H124       31.2364    4.0103  -10.8379 H         1 UNK         0.0812 
    125 H125       30.9384   -0.1008   -8.9811 H         1 UNK         0.3205 
    126 H126       32.5453   -1.0188  -11.1691 H         1 UNK         0.0754 
    127 H127       32.3177   -3.2245  -10.0474 H         1 UNK         0.0769 
    128 H128       30.7719   -2.3886  -10.0440 H         1 UNK         0.0769 
    129 H129       31.7506   -2.4471   -8.5767 H         1 UNK         0.0769 
    130 H130       33.4021    0.1285   -8.0107 H         1 UNK         0.2981 
    131 H131       35.9688   -1.1160   -7.7087 H         1 UNK         0.0541 
    132 H132       38.0108   -0.4525   -8.4436 H         1 UNK         0.3459 
    133 H133       38.2669    1.0003   -9.3742 H         1 UNK         0.3459 
    134 H134       36.2837    0.6896   -5.9401 H         1 UNK         0.0612 
    135 H135       34.7399    1.3706   -6.3868 H         1 UNK         0.0612 
    136 H136       32.4225   -0.0606   -6.2243 H         1 UNK         0.0624 
    137 H137       32.7574    0.8198   -4.7488 H         1 UNK         0.0624 
@<TRIPOS>BOND
     1    1    2 1    
     2    1   72 1    
     3    1   73 1    
     4    1   74 1    
     5    2    3 2    
     6    2    4 am   BACKBONE|DICT|INTERRES
     7    4    5 1    
     8    4   75 1    
     9    5    6 1    
    10    5   35 1    
    11    5   76 1    
    12    6    7 1    
    13    6   77 1    
    14    6   78 1    
    15    7    8 1    
    16    8    9 1    
    17    8   79 1    
    18    8   80 1    
    19    9   10 ar   
    20    9   14 ar   
    21   10   11 ar   
    22   10   81 1    
    23   11   12 ar   
    24   11   71 1    
    25   12   13 ar   
    26   12   82 1    
    27   13   14 ar   
    28   13   15 1    
    29   14   83 1    
    30   15   16 1    
    31   15   84 1    
    32   15   85 1    
    33   16   17 1    
    34   17   18 1    
    35   17   86 1    
    36   17   87 1    
    37   18   19 1    
    38   18   37 1    
    39   18   88 1    
    40   19   20 am   BACKBONE|DICT|INTERRES
    41   19   89 1    
    42   20   21 2    
    43   20   22 1    
    44   22   23 1    
    45   22   24 1    
    46   22   90 1    
    47   23   91 1    
    48   23   92 1    
    49   23   93 1    
    50   24   25 am   BACKBONE|DICT|INTERRES
    51   24   94 1    
    52   25   26 2    
    53   25   27 1    
    54   27   28 1    
    55   27   29 1    
    56   27   95 1    
    57   28   96 1    
    58   28   97 1    
    59   28   98 1    
    60   29   30 am   BACKBONE|DICT|INTERRES
    61   29   99 1    
    62   30   31 2    
    63   30   32 1    
    64   32   33 1    
    65   32   34 1    
    66   32  100 1    
    67   33  101 1    
    68   33  102 1    
    69   33  103 1    
    70   34   35 am   BACKBONE|DICT|INTERRES
    71   34  104 1    
    72   35   36 2    
    73   37   38 2    
    74   37   39 am   BACKBONE|DICT|INTERRES
    75   39   40 1    
    76   39  105 1    
    77   40   41 1    
    78   40   42 1    
    79   40  106 1    
    80   41  107 1    
    81   41  108 1    
    82   41  109 1    
    83   42   43 2    
    84   42   44 am   BACKBONE|DICT|INTERRES
    85   44   45 1    
    86   44  110 1    
    87   45   46 1    
    88   45   47 1    
    89   45  111 1    
    90   46  112 1    
    91   46  113 1    
    92   46  114 1    
    93   47   48 2    
    94   47   49 am   BACKBONE|DICT|INTERRES
    95   49   50 1    
    96   49  115 1    
    97   50   51 1    
    98   50   52 1    
    99   50  116 1    
   100   51  117 1    
   101   51  118 1    
   102   51  119 1    
   103   52   53 2    
   104   52   54 am   BACKBONE|DICT|INTERRES
   105   54   55 1    
   106   54  120 1    
   107   55   56 1    
   108   55   57 1    
   109   55  121 1    
   110   56  122 1    
   111   56  123 1    
   112   56  124 1    
   113   57   58 2    
   114   57   59 am   BACKBONE|DICT|INTERRES
   115   59   60 1    
   116   59  125 1    
   117   60   61 1    
   118   60   62 1    
   119   60  126 1    
   120   61  127 1    
   121   61  128 1    
   122   61  129 1    
   123   62   63 2    
   124   62   64 am   BACKBONE|DICT|INTERRES
   125   64   65 1    
   126   64  130 1    
   127   65   66 1    
   128   65   69 1    
   129   65  131 1    
   130   66   67 am   BACKBONE|DICT|INTERRES
   131   66   68 2    
   132   67  132 1    
   133   67  133 1    
   134   69   70 1    
   135   69  134 1    
   136   69  135 1    
   137   70   71 1    
   138   71  136 1    
   139   71  137 1    
@<TRIPOS>SUBSTRUCTURE
     1 UNK         1 GROUP             0       ****    0 ROOT    
