@<TRIPOS>MOLECULE
3R137
137   139    1
SMALL
USER_CHARGES


@<TRIPOS>ATOM
      1 CA         26.6411   -6.3342   -4.8519 C.3       0 UNK        -0.2020 
      2 C          26.4480   -5.5496   -3.5637 C.2       0 UNK         0.4855 
      3 O          25.3227   -5.1704   -3.2364 O.2       0 UNK        -0.5197 
      4 N          27.5365   -5.2910   -2.8290 N.am      1 UNK        -0.4892 
      5 CA         27.5553   -4.4617   -1.6206 C.3       1 UNK         0.0835 
      6 C6         28.8970   -4.5592   -0.8427 C.3       12 UNK        -0.0855 
      7 S7         30.4001   -4.5816   -1.8888 S.3       12 UNK        -0.2931 
      8 C8         31.5359   -3.4573   -1.0163 C.3       12 UNK         0.0378 
      9 C9         31.9391   -2.2874   -1.9002 C.ar      12 UNK        -0.0802 
     10 C10        33.2255   -2.2130   -2.4433 C.ar      12 UNK        -0.0944 
     11 C11        33.5946   -1.1249   -3.2405 C.ar      12 UNK        -0.0787 
     12 C12        32.6694   -0.1060   -3.4835 C.ar      12 UNK        -0.0862 
     13 C13        31.3770   -0.1685   -2.9545 C.ar      12 UNK        -0.0733 
     14 C14        31.0196   -1.2709   -2.1671 C.ar      12 UNK        -0.0832 
     15 C15        30.3908    0.9409   -3.3140 C.3       12 UNK         0.0240 
     16 S16        28.9210    1.0542   -2.2258 S.3       12 UNK        -0.2522 
     17 C17        27.7417    2.1055   -3.1485 C.3       12 UNK        -0.0967 
     18 CA         27.6769    1.8661   -4.6786 C.3       5 UNK         0.0660 
     19 N          27.5821    0.4458   -5.0282 N.am      5 UNK        -0.4015 
     20 C          27.8526   -0.0642   -6.2376 C.2       4 UNK         0.4946 
     21 O          28.2282    0.6107   -7.1962 O.2       4 UNK        -0.5353 
     22 CA         27.6134   -1.5729   -6.4174 C.3       4 UNK         0.0277 
     23 CB         28.8452   -2.3840   -5.9848 C.3       4 UNK        -0.1981 
     24 N          26.4394   -2.0234   -5.6682 N.am      4 UNK        -0.4209 
     25 C          25.1787   -1.6939   -5.9904 C.2       3 UNK         0.4942 
     26 O          24.8801   -1.0513   -6.9969 O.2       3 UNK        -0.5208 
     27 CA         24.0703   -2.0933   -5.0006 C.3       3 UNK         0.0250 
     28 CB         23.4584   -3.4475   -5.3898 C.3       3 UNK        -0.1990 
     29 N          24.5343   -2.1230   -3.6085 N.am      3 UNK        -0.4232 
     30 C          24.9147   -1.0261   -2.9321 C.2       2 UNK         0.4993 
     31 O          24.8621    0.1075   -3.4080 O.2       2 UNK        -0.5286 
     32 CA         25.4954   -1.2043   -1.5166 C.3       2 UNK         0.0209 
     33 CB         24.4145   -0.9376   -0.4576 C.3       2 UNK        -0.1931 
     34 N          26.1030   -2.5162   -1.2731 N.am      2 UNK        -0.4546 
     35 C          27.1466   -3.0116   -1.9526 C.2       1 UNK         0.5154 
     36 O          27.7247   -2.3956   -2.8500 O.2       1 UNK        -0.5181 
     37 C          26.5374    2.6812   -5.3187 C.2       5 UNK         0.5014 
     38 O          26.7737    3.8153   -5.7337 O.2       5 UNK        -0.5248 
     39 N          25.3385    2.0863   -5.4164 N.am      6 UNK        -0.4434 
     40 CA         24.1889    2.6362   -6.1389 C.3       6 UNK         0.0363 
     41 CB         22.9345    1.8022   -5.8350 C.3       6 UNK        -0.1936 
     42 C          24.4336    2.7250   -7.6559 C.2       6 UNK         0.5081 
     43 O          24.0414    3.7181   -8.2692 O.2       6 UNK        -0.5248 
     44 N          25.0981    1.7089   -8.2294 N.am      7 UNK        -0.4718 
     45 CA         25.5809    1.7161   -9.6155 C.3       7 UNK         0.0273 
     46 CB         26.0376    0.3032  -10.0143 C.3       7 UNK        -0.1935 
     47 C          26.7097    2.7403   -9.8388 C.2       7 UNK         0.5018 
     48 O          26.7533    3.3692  -10.8963 O.2       7 UNK        -0.5186 
     49 N          27.5778    2.8945   -8.8272 N.am      8 UNK        -0.4240 
     50 CA         28.6626    3.8764   -8.7022 C.3       8 UNK         0.0235 
     51 CB         28.1052    5.3164   -8.6989 C.3       8 UNK        -0.2000 
     52 C          29.8062    3.6858   -9.7164 C.2       8 UNK         0.4941 
     53 O          30.5289    4.6412  -10.0069 O.2       8 UNK        -0.5273 
     54 N          29.9684    2.4585  -10.2230 N.am      9 UNK        -0.4262 
     55 CA         30.9929    2.0778  -11.1963 C.3       9 UNK         0.0264 
     56 CB         30.5215    2.4331  -12.6219 C.3       9 UNK        -0.1955 
     57 C          31.3647    0.5946  -11.0398 C.2       9 UNK         0.5031 
     58 O          31.6364   -0.0762  -12.0378 O.2       9 UNK        -0.5390 
     59 N          31.3543    0.0956   -9.7981 N.am      10 UNK        -0.4204 
     60 CA         31.6290   -1.2936   -9.4481 C.3       10 UNK         0.0237 
     61 CB         30.3777   -2.1545   -9.7218 C.3       10 UNK        -0.1985 
     62 C          32.0328   -1.3767   -7.9724 C.2       10 UNK         0.4970 
     63 O          31.7766   -0.4394   -7.2125 O.2       10 UNK        -0.4914 
     64 N          32.6020   -2.5261   -7.6032 N.am      11 UNK        -0.4285 
     65 CA         32.8349   -2.9770   -6.2275 C.3       11 UNK         0.1007 
     66 C          32.2849   -4.4180   -6.0904 C.2       11 UNK         0.5703 
     67 N          31.7243   -4.7677   -4.9437 N.am      11 UNK        -0.7361 
     68 O          32.3883   -5.2324   -7.0073 O.2       11 UNK        -0.4986 
     69 C69        34.3373   -2.9338   -5.8398 C.3       12 UNK        -0.0947 
     70 S70        34.9683   -1.2339   -5.6580 S.3       12 UNK        -0.2240 
     71 C71        34.9904   -1.0451   -3.8448 C.3       12 UNK         0.0194 
     72 H72        26.3646   -5.7209   -5.7090 H         1 UNK         0.0906 
     73 H73        27.6748   -6.6538   -4.9827 H         1 UNK         0.0906 
     74 H74        26.0092   -7.2219   -4.8488 H         1 UNK         0.0906 
     75 H75        28.4490   -5.5849   -3.1494 H         1 UNK         0.3140 
     76 H76        26.7850   -4.8683   -0.9611 H         1 UNK         0.1085 
     77 H77        28.9038   -5.4900   -0.2734 H         1 UNK         0.0836 
     78 H78        28.9600   -3.7688   -0.0929 H         1 UNK         0.0836 
     79 H79        32.4157   -4.0245   -0.7085 H         1 UNK         0.0731 
     80 H80        31.0895   -3.0776   -0.0969 H         1 UNK         0.0731 
     81 H81        33.9385   -3.0022   -2.2470 H         1 UNK         0.1312 
     82 H82        32.9527    0.7276   -4.1122 H         1 UNK         0.1406 
     83 H83        30.0194   -1.3614   -1.7674 H         1 UNK         0.1631 
     84 H84        30.1008    0.7563   -4.3455 H         1 UNK         0.0717 
     85 H85        30.8984    1.9065   -3.3009 H         1 UNK         0.0717 
     86 H86        26.7597    1.9502   -2.6972 H         1 UNK         0.0934 
     87 H87        27.9966    3.1480   -2.9484 H         1 UNK         0.0934 
     88 H88        28.6000    2.2522   -5.1157 H         1 UNK         0.0739 
     89 H89        27.2947   -0.1798   -4.2885 H         1 UNK         0.3093 
     90 H90        27.4335   -1.7627   -7.4778 H         1 UNK         0.0818 
     91 H91        28.6606   -3.4571   -6.0363 H         1 UNK         0.0819 
     92 H92        29.6884   -2.1717   -6.6372 H         1 UNK         0.0819 
     93 H93        29.1620   -2.1453   -4.9691 H         1 UNK         0.0819 
     94 H94        26.6163   -2.5013   -4.7930 H         1 UNK         0.3041 
     95 H95        23.2819   -1.3409   -5.0672 H         1 UNK         0.0784 
     96 H96        22.9999   -3.3934   -6.3781 H         1 UNK         0.0793 
     97 H97        24.2079   -4.2375   -5.4270 H         1 UNK         0.0793 
     98 H98        22.6816   -3.7520   -4.6883 H         1 UNK         0.0793 
     99 H99        24.6338   -3.0347   -3.1764 H         1 UNK         0.3024 
    100 H100       26.2808   -0.4538   -1.4007 H         1 UNK         0.1171 
    101 H101       24.8313   -0.9567    0.5496 H         1 UNK         0.0786 
    102 H102       23.9636    0.0459   -0.5999 H         1 UNK         0.0786 
    103 H103       23.6114   -1.6741   -0.5050 H         1 UNK         0.0786 
    104 H104       25.6615   -3.0906   -0.5690 H         1 UNK         0.2977 
    105 H105       25.1988    1.2006   -4.9362 H         1 UNK         0.3127 
    106 H106       24.0207    3.6498   -5.7687 H         1 UNK         0.0770 
    107 H107       23.0212    0.7867   -6.2206 H         1 UNK         0.0814 
    108 H108       22.0519    2.2488   -6.2947 H         1 UNK         0.0814 
    109 H109       22.7470    1.7401   -4.7628 H         1 UNK         0.0814 
    110 H110       25.3070    0.8863   -7.6732 H         1 UNK         0.2983 
    111 H111       24.7465    1.9995  -10.2609 H         1 UNK         0.0947 
    112 H112       26.8707   -0.0442   -9.4035 H         1 UNK         0.0806 
    113 H113       26.3636    0.2784  -11.0550 H         1 UNK         0.0806 
    114 H114       25.2267   -0.4181   -9.9108 H         1 UNK         0.0806 
    115 H115       27.5057    2.2388   -8.0542 H         1 UNK         0.3000 
    116 H116       29.1049    3.6974   -7.7210 H         1 UNK         0.0850 
    117 H117       27.3020    5.4278   -7.9702 H         1 UNK         0.0810 
    118 H118       27.7139    5.6014   -9.6758 H         1 UNK         0.0810 
    119 H119       28.8804    6.0371   -8.4363 H         1 UNK         0.0810 
    120 H120       29.3346    1.7283   -9.9265 H         1 UNK         0.3040 
    121 H121       31.9064    2.6387  -10.9877 H         1 UNK         0.0766 
    122 H122       31.2869    2.1958  -13.3618 H         1 UNK         0.0812 
    123 H123       30.3048    3.4973  -12.7163 H         1 UNK         0.0812 
    124 H124       29.6195    1.8832  -12.8928 H         1 UNK         0.0812 
    125 H125       31.1943    0.7004   -9.0006 H         1 UNK         0.3205 
    126 H126       32.4658   -1.6562  -10.0494 H         1 UNK         0.0754 
    127 H127       30.5368   -3.1949   -9.4355 H         1 UNK         0.0769 
    128 H128       30.1167   -2.1518  -10.7802 H         1 UNK         0.0769 
    129 H129       29.5126   -1.7901   -9.1661 H         1 UNK         0.0769 
    130 H130       32.7310   -3.2519   -8.2952 H         1 UNK         0.2981 
    131 H131       32.2698   -2.3463   -5.5380 H         1 UNK         0.0541 
    132 H132       31.3819   -5.7089   -4.8392 H         1 UNK         0.3459 
    133 H133       31.6363   -4.1196   -4.1751 H         1 UNK         0.3459 
    134 H134       34.5122   -3.4685   -4.9044 H         1 UNK         0.0612 
    135 H135       34.9409   -3.4441   -6.5924 H         1 UNK         0.0612 
    136 H136       35.4321   -0.0787   -3.5980 H         1 UNK         0.0624 
    137 H137       35.6478   -1.8014   -3.4129 H         1 UNK         0.0624 
@<TRIPOS>BOND
     1    1    2 1    
     2    1   72 1    
     3    1   73 1    
     4    1   74 1    
     5    2    3 2    
     6    2    4 am   BACKBONE|DICT|INTERRES
     7    4    5 1    
     8    4   75 1    
     9    5    6 1    
    10    5   35 1    
    11    5   76 1    
    12    6    7 1    
    13    6   77 1    
    14    6   78 1    
    15    7    8 1    
    16    8    9 1    
    17    8   79 1    
    18    8   80 1    
    19    9   10 ar   
    20    9   14 ar   
    21   10   11 ar   
    22   10   81 1    
    23   11   12 ar   
    24   11   71 1    
    25   12   13 ar   
    26   12   82 1    
    27   13   14 ar   
    28   13   15 1    
    29   14   83 1    
    30   15   16 1    
    31   15   84 1    
    32   15   85 1    
    33   16   17 1    
    34   17   18 1    
    35   17   86 1    
    36   17   87 1    
    37   18   19 1    
    38   18   37 1    
    39   18   88 1    
    40   19   20 am   BACKBONE|DICT|INTERRES
    41   19   89 1    
    42   20   21 2    
    43   20   22 1    
    44   22   23 1    
    45   22   24 1    
    46   22   90 1    
    47   23   91 1    
    48   23   92 1    
    49   23   93 1    
    50   24   25 am   BACKBONE|DICT|INTERRES
    51   24   94 1    
    52   25   26 2    
    53   25   27 1    
    54   27   28 1    
    55   27   29 1    
    56   27   95 1    
    57   28   96 1    
    58   28   97 1    
    59   28   98 1    
    60   29   30 am   BACKBONE|DICT|INTERRES
    61   29   99 1    
    62   30   31 2    
    63   30   32 1    
    64   32   33 1    
    65   32   34 1    
    66   32  100 1    
    67   33  101 1    
    68   33  102 1    
    69   33  103 1    
    70   34   35 am   BACKBONE|DICT|INTERRES
    71   34  104 1    
    72   35   36 2    
    73   37   38 2    
    74   37   39 am   BACKBONE|DICT|INTERRES
    75   39   40 1    
    76   39  105 1    
    77   40   41 1    
    78   40   42 1    
    79   40  106 1    
    80   41  107 1    
    81   41  108 1    
    82   41  109 1    
    83   42   43 2    
    84   42   44 am   BACKBONE|DICT|INTERRES
    85   44   45 1    
    86   44  110 1    
    87   45   46 1    
    88   45   47 1    
    89   45  111 1    
    90   46  112 1    
    91   46  113 1    
    92   46  114 1    
    93   47   48 2    
    94   47   49 am   BACKBONE|DICT|INTERRES
    95   49   50 1    
    96   49  115 1    
    97   50   51 1    
    98   50   52 1    
    99   50  116 1    
   100   51  117 1    
   101   51  118 1    
   102   51  119 1    
   103   52   53 2    
   104   52   54 am   BACKBONE|DICT|INTERRES
   105   54   55 1    
   106   54  120 1    
   107   55   56 1    
   108   55   57 1    
   109   55  121 1    
   110   56  122 1    
   111   56  123 1    
   112   56  124 1    
   113   57   58 2    
   114   57   59 am   BACKBONE|DICT|INTERRES
   115   59   60 1    
   116   59  125 1    
   117   60   61 1    
   118   60   62 1    
   119   60  126 1    
   120   61  127 1    
   121   61  128 1    
   122   61  129 1    
   123   62   63 2    
   124   62   64 am   BACKBONE|DICT|INTERRES
   125   64   65 1    
   126   64  130 1    
   127   65   66 1    
   128   65   69 1    
   129   65  131 1    
   130   66   67 am   BACKBONE|DICT|INTERRES
   131   66   68 2    
   132   67  132 1    
   133   67  133 1    
   134   69   70 1    
   135   69  134 1    
   136   69  135 1    
   137   70   71 1    
   138   71  136 1    
   139   71  137 1    
@<TRIPOS>SUBSTRUCTURE
     1 UNK         1 GROUP             0       ****    0 ROOT    
