@<TRIPOS>MOLECULE
3R137
137   139    1
SMALL
USER_CHARGES


@<TRIPOS>ATOM
      1 CA         30.0933   -4.7696   -6.9009 C.3       0 UNK        -0.2020 
      2 C          28.9751   -5.4402   -6.1174 C.2       0 UNK         0.4855 
      3 O          28.5540   -6.5410   -6.4726 O.2       0 UNK        -0.5197 
      4 N          28.4975   -4.7920   -5.0455 N.am      1 UNK        -0.4892 
      5 CA         27.4483   -5.3147   -4.1586 C.3       1 UNK         0.0835 
      6 C6         27.4526   -4.6101   -2.7798 C.3       12 UNK        -0.0855 
      7 S7         27.1161   -2.8128   -2.8478 S.3       12 UNK        -0.2931 
      8 C8         28.0909   -2.2152   -1.4280 C.3       12 UNK         0.0378 
      9 C9         29.3726   -1.5129   -1.8587 C.ar      12 UNK        -0.0802 
     10 C10        30.2982   -2.1496   -2.6916 C.ar      12 UNK        -0.0944 
     11 C11        31.4634   -1.4974   -3.1066 C.ar      12 UNK        -0.0787 
     12 C12        31.6998   -0.1881   -2.6616 C.ar      12 UNK        -0.0862 
     13 C13        30.7991    0.4521   -1.8067 C.ar      12 UNK        -0.0733 
     14 C14        29.6400   -0.2188   -1.4061 C.ar      12 UNK        -0.0832 
     15 C15        31.0985    1.8571   -1.2967 C.3       12 UNK         0.0240 
     16 S16        29.7080    3.0084   -1.5363 S.3       12 UNK        -0.2522 
     17 C17        29.7147    3.2584   -3.3462 C.3       12 UNK        -0.0967 
     18 CA         28.8566    2.2395   -4.1464 C.3       5 UNK         0.0660 
     19 N          27.5938    1.9061   -3.4713 N.am      5 UNK        -0.4015 
     20 C          26.6457    1.0723   -3.9179 C.2       4 UNK         0.4946 
     21 O          26.6468    0.5575   -5.0398 O.2       4 UNK        -0.5353 
     22 CA         25.4800    0.7915   -2.9629 C.3       4 UNK         0.0277 
     23 CB         24.6496    2.0648   -2.7041 C.3       4 UNK        -0.1981 
     24 N          24.6394   -0.2362   -3.5679 N.am      4 UNK        -0.4209 
     25 C          23.7450   -1.0058   -2.9385 C.2       3 UNK         0.4942 
     26 O          23.5295   -0.9651   -1.7269 O.2       3 UNK        -0.5208 
     27 CA         22.9430   -1.9730   -3.8175 C.3       3 UNK         0.0250 
     28 CB         21.8263   -1.1919   -4.5472 C.3       3 UNK        -0.1990 
     29 N          23.8258   -2.6833   -4.7506 N.am      3 UNK        -0.4232 
     30 C          23.4512   -3.6281   -5.6257 C.2       2 UNK         0.4993 
     31 O          22.2929   -4.0204   -5.7693 O.2       2 UNK        -0.5286 
     32 CA         24.5575   -4.2565   -6.4906 C.3       2 UNK         0.0209 
     33 CB         24.7922   -3.4208   -7.7576 C.3       2 UNK        -0.1931 
     34 N          25.8275   -4.4196   -5.7815 N.am      2 UNK        -0.4546 
     35 C          26.0418   -5.3029   -4.7957 C.2       1 UNK         0.5154 
     36 O          25.1863   -6.0893   -4.3861 O.2       1 UNK        -0.5181 
     37 C          28.6783    2.7400   -5.5957 C.2       5 UNK         0.5014 
     38 O          29.4707    2.3777   -6.4676 O.2       5 UNK        -0.5248 
     39 N          27.6400    3.5590   -5.8209 N.am      6 UNK        -0.4434 
     40 CA         27.2820    4.1114   -7.1283 C.3       6 UNK         0.0363 
     41 CB         26.2927    5.2732   -6.9446 C.3       6 UNK        -0.1936 
     42 C          26.7034    3.0532   -8.0803 C.2       6 UNK         0.5081 
     43 O          27.0587    3.0463   -9.2581 O.2       6 UNK        -0.5248 
     44 N          25.8546    2.1574   -7.5550 N.am      7 UNK        -0.4718 
     45 CA         25.2841    1.0264   -8.2969 C.3       7 UNK         0.0273 
     46 CB         24.1147    0.4198   -7.5044 C.3       7 UNK        -0.1935 
     47 C          26.3446   -0.0405   -8.6121 C.2       7 UNK         0.5018 
     48 O          26.3284   -0.6182   -9.6984 O.2       7 UNK        -0.5186 
     49 N          27.2729   -0.2407   -7.6670 N.am      8 UNK        -0.4240 
     50 CA         28.4788   -1.0569   -7.8058 C.3       8 UNK         0.0235 
     51 CB         29.0717   -1.2879   -6.4047 C.3       8 UNK        -0.2000 
     52 C          29.5408   -0.4432   -8.7406 C.2       8 UNK         0.4941 
     53 O          30.5290   -1.1187   -9.0284 O.2       8 UNK        -0.5273 
     54 N          29.3496    0.8165   -9.1658 N.am      9 UNK        -0.4262 
     55 CA         30.2210    1.6158  -10.0348 C.3       9 UNK         0.0264 
     56 CB         30.2117    1.0501  -11.4708 C.3       9 UNK        -0.1955 
     57 C          31.6420    1.7865   -9.4642 C.2       9 UNK         0.5031 
     58 O          32.6180    1.6788  -10.2093 O.2       9 UNK        -0.5390 
     59 N          31.7246    2.0248   -8.1452 N.am      10 UNK        -0.4204 
     60 CA         32.9479    2.0766   -7.3345 C.3       10 UNK         0.0237 
     61 CB         33.8147    3.2984   -7.7081 C.3       10 UNK        -0.1985 
     62 C          33.7245    0.7431   -7.3576 C.2       10 UNK         0.4970 
     63 O          34.9517    0.7410   -7.4725 O.2       10 UNK        -0.4914 
     64 N          32.9758   -0.3606   -7.2342 N.am      11 UNK        -0.4285 
     65 CA         33.4525   -1.7524   -7.2310 C.3       11 UNK         0.1007 
     66 C          33.9604   -2.2149   -8.6262 C.2       11 UNK         0.5703 
     67 N          33.2007   -1.9596   -9.6833 N.am      11 UNK        -0.7361 
     68 O          35.0269   -2.8116   -8.7601 O.2       11 UNK        -0.4986 
     69 C69        34.4274   -2.0963   -6.0603 C.3       12 UNK        -0.0947 
     70 S70        33.9729   -1.3895   -4.4383 S.3       12 UNK        -0.2240 
     71 C71        32.4080   -2.2463   -4.0503 C.3       12 UNK         0.0194 
     72 H72        30.7222   -4.1619   -6.2526 H         1 UNK         0.0906 
     73 H73        30.7310   -5.5199   -7.3680 H         1 UNK         0.0906 
     74 H74        29.6827   -4.1381   -7.6882 H         1 UNK         0.0906 
     75 H75        28.8611   -3.8841   -4.7956 H         1 UNK         0.3140 
     76 H76        27.6790   -6.3672   -3.9761 H         1 UNK         0.1085 
     77 H77        28.4190   -4.7796   -2.3030 H         1 UNK         0.0836 
     78 H78        26.7182   -5.0702   -2.1155 H         1 UNK         0.0836 
     79 H79        28.3347   -3.0346   -0.7509 H         1 UNK         0.0731 
     80 H80        27.4576   -1.5342   -0.8574 H         1 UNK         0.0731 
     81 H81        30.1053   -3.1580   -3.0278 H         1 UNK         0.1312 
     82 H82        32.5879    0.3456   -2.9661 H         1 UNK         0.1406 
     83 H83        28.9431    0.2750   -0.7426 H         1 UNK         0.1631 
     84 H84        31.9895    2.2702   -1.7720 H         1 UNK         0.0717 
     85 H85        31.3201    1.7972   -0.2305 H         1 UNK         0.0717 
     86 H86        29.3552    4.2764   -3.5117 H         1 UNK         0.0934 
     87 H87        30.7453    3.2483   -3.7070 H         1 UNK         0.0934 
     88 H88        29.4179    1.3054   -4.2033 H         1 UNK         0.0739 
     89 H89        27.5058    2.2842   -2.5389 H         1 UNK         0.3093 
     90 H90        25.8900    0.4112   -2.0249 H         1 UNK         0.0818 
     91 H91        25.2489    2.8466   -2.2365 H         1 UNK         0.0819 
     92 H92        24.2408    2.4729   -3.6295 H         1 UNK         0.0819 
     93 H93        23.8139    1.8647   -2.0334 H         1 UNK         0.0819 
     94 H94        24.8081   -0.3507   -4.5586 H         1 UNK         0.3041 
     95 H95        22.4833   -2.7145   -3.1609 H         1 UNK         0.0784 
     96 H96        21.2626   -0.5713   -3.8489 H         1 UNK         0.0793 
     97 H97        22.2283   -0.5322   -5.3161 H         1 UNK         0.0793 
     98 H98        21.1057   -1.8570   -5.0216 H         1 UNK         0.0793 
     99 H99        24.8153   -2.5023   -4.6451 H         1 UNK         0.3024 
    100 H100       24.2100   -5.2471   -6.7939 H         1 UNK         0.1171 
    101 H101       25.1794   -2.4329   -7.5142 H         1 UNK         0.0786 
    102 H102       25.5029   -3.9037   -8.4286 H         1 UNK         0.0786 
    103 H103       23.8644   -3.2813   -8.3143 H         1 UNK         0.0786 
    104 H104       26.5954   -3.8271   -6.0594 H         1 UNK         0.2977 
    105 H105       27.0471    3.8054   -5.0419 H         1 UNK         0.3127 
    106 H106       28.1900    4.5086   -7.5880 H         1 UNK         0.0770 
    107 H107       25.3667    4.9484   -6.4683 H         1 UNK         0.0814 
    108 H108       26.0265    5.7130   -7.9069 H         1 UNK         0.0814 
    109 H109       26.7232    6.0685   -6.3358 H         1 UNK         0.0814 
    110 H110       25.6664    2.1929   -6.5633 H         1 UNK         0.2983 
    111 H111       24.8966    1.4016   -9.2470 H         1 UNK         0.0947 
    112 H112       23.6375   -0.3823   -8.0692 H         1 UNK         0.0806 
    113 H113       23.3480    1.1653   -7.2934 H         1 UNK         0.0806 
    114 H114       24.4436   -0.0029   -6.5560 H         1 UNK         0.0806 
    115 H115       27.1483    0.2280   -6.7707 H         1 UNK         0.3000 
    116 H116       28.1919   -2.0213   -8.2294 H         1 UNK         0.0850 
    117 H117       29.3615   -0.3498   -5.9328 H         1 UNK         0.0810 
    118 H118       29.9641   -1.9093   -6.4509 H         1 UNK         0.0810 
    119 H119       28.3575   -1.7797   -5.7446 H         1 UNK         0.0810 
    120 H120       28.5168    1.2935   -8.8459 H         1 UNK         0.3040 
    121 H121       29.7849    2.6152  -10.0694 H         1 UNK         0.0766 
    122 H122       30.6769    0.0649  -11.5198 H         1 UNK         0.0812 
    123 H123       29.1953    0.9608  -11.8541 H         1 UNK         0.0812 
    124 H124       30.7586    1.7026  -12.1524 H         1 UNK         0.0812 
    125 H125       30.8526    2.1129   -7.6207 H         1 UNK         0.3205 
    126 H126       32.6189    2.2140   -6.3032 H         1 UNK         0.0754 
    127 H127       34.6532    3.4065   -7.0189 H         1 UNK         0.0769 
    128 H128       33.2377    4.2220   -7.6626 H         1 UNK         0.0769 
    129 H129       34.2302    3.2110   -8.7124 H         1 UNK         0.0769 
    130 H130       31.9731   -0.2522   -7.2270 H         1 UNK         0.2981 
    131 H131       32.5576   -2.3538   -7.0768 H         1 UNK         0.0541 
    132 H132       33.5065   -2.2457  -10.5988 H         1 UNK         0.3459 
    133 H133       32.2885   -1.5263   -9.5596 H         1 UNK         0.3459 
    134 H134       35.4303   -1.7327   -6.2905 H         1 UNK         0.0612 
    135 H135       34.5176   -3.1783   -5.9518 H         1 UNK         0.0612 
    136 H136       31.8608   -2.4358   -4.9706 H         1 UNK         0.0624 
    137 H137       32.6489   -3.2216   -3.6251 H         1 UNK         0.0624 
@<TRIPOS>BOND
     1    1    2 1    
     2    1   72 1    
     3    1   73 1    
     4    1   74 1    
     5    2    3 2    
     6    2    4 am   BACKBONE|DICT|INTERRES
     7    4    5 1    
     8    4   75 1    
     9    5    6 1    
    10    5   35 1    
    11    5   76 1    
    12    6    7 1    
    13    6   77 1    
    14    6   78 1    
    15    7    8 1    
    16    8    9 1    
    17    8   79 1    
    18    8   80 1    
    19    9   10 ar   
    20    9   14 ar   
    21   10   11 ar   
    22   10   81 1    
    23   11   12 ar   
    24   11   71 1    
    25   12   13 ar   
    26   12   82 1    
    27   13   14 ar   
    28   13   15 1    
    29   14   83 1    
    30   15   16 1    
    31   15   84 1    
    32   15   85 1    
    33   16   17 1    
    34   17   18 1    
    35   17   86 1    
    36   17   87 1    
    37   18   19 1    
    38   18   37 1    
    39   18   88 1    
    40   19   20 am   BACKBONE|DICT|INTERRES
    41   19   89 1    
    42   20   21 2    
    43   20   22 1    
    44   22   23 1    
    45   22   24 1    
    46   22   90 1    
    47   23   91 1    
    48   23   92 1    
    49   23   93 1    
    50   24   25 am   BACKBONE|DICT|INTERRES
    51   24   94 1    
    52   25   26 2    
    53   25   27 1    
    54   27   28 1    
    55   27   29 1    
    56   27   95 1    
    57   28   96 1    
    58   28   97 1    
    59   28   98 1    
    60   29   30 am   BACKBONE|DICT|INTERRES
    61   29   99 1    
    62   30   31 2    
    63   30   32 1    
    64   32   33 1    
    65   32   34 1    
    66   32  100 1    
    67   33  101 1    
    68   33  102 1    
    69   33  103 1    
    70   34   35 am   BACKBONE|DICT|INTERRES
    71   34  104 1    
    72   35   36 2    
    73   37   38 2    
    74   37   39 am   BACKBONE|DICT|INTERRES
    75   39   40 1    
    76   39  105 1    
    77   40   41 1    
    78   40   42 1    
    79   40  106 1    
    80   41  107 1    
    81   41  108 1    
    82   41  109 1    
    83   42   43 2    
    84   42   44 am   BACKBONE|DICT|INTERRES
    85   44   45 1    
    86   44  110 1    
    87   45   46 1    
    88   45   47 1    
    89   45  111 1    
    90   46  112 1    
    91   46  113 1    
    92   46  114 1    
    93   47   48 2    
    94   47   49 am   BACKBONE|DICT|INTERRES
    95   49   50 1    
    96   49  115 1    
    97   50   51 1    
    98   50   52 1    
    99   50  116 1    
   100   51  117 1    
   101   51  118 1    
   102   51  119 1    
   103   52   53 2    
   104   52   54 am   BACKBONE|DICT|INTERRES
   105   54   55 1    
   106   54  120 1    
   107   55   56 1    
   108   55   57 1    
   109   55  121 1    
   110   56  122 1    
   111   56  123 1    
   112   56  124 1    
   113   57   58 2    
   114   57   59 am   BACKBONE|DICT|INTERRES
   115   59   60 1    
   116   59  125 1    
   117   60   61 1    
   118   60   62 1    
   119   60  126 1    
   120   61  127 1    
   121   61  128 1    
   122   61  129 1    
   123   62   63 2    
   124   62   64 am   BACKBONE|DICT|INTERRES
   125   64   65 1    
   126   64  130 1    
   127   65   66 1    
   128   65   69 1    
   129   65  131 1    
   130   66   67 am   BACKBONE|DICT|INTERRES
   131   66   68 2    
   132   67  132 1    
   133   67  133 1    
   134   69   70 1    
   135   69  134 1    
   136   69  135 1    
   137   70   71 1    
   138   71  136 1    
   139   71  137 1    
@<TRIPOS>SUBSTRUCTURE
     1 UNK         1 GROUP             0       ****    0 ROOT    
