@<TRIPOS>MOLECULE
3R137
137   139    1
SMALL
USER_CHARGES


@<TRIPOS>ATOM
      1 CA         26.7031   -5.8538    0.8758 C.3       0 UNK        -0.2020 
      2 C          26.6350   -4.4610    1.4838 C.2       0 UNK         0.4855 
      3 O          26.0448   -4.2845    2.5495 O.2       0 UNK        -0.5197 
      4 N          27.2315   -3.4683    0.8117 N.am      1 UNK        -0.4892 
      5 CA         27.2486   -2.0588    1.2287 C.3       1 UNK         0.0835 
      6 C6         28.4495   -1.2986    0.6101 C.3       12 UNK        -0.0855 
      7 S7         28.4776   -1.3223   -1.2175 S.3       12 UNK        -0.2931 
      8 C8         29.9762   -2.2968   -1.5448 C.3       12 UNK         0.0378 
      9 C9         30.2259   -2.4256   -3.0392 C.ar      12 UNK        -0.0802 
     10 C10        31.1263   -1.5703   -3.6815 C.ar      12 UNK        -0.0944 
     11 C11        31.3695   -1.6969   -5.0528 C.ar      12 UNK        -0.0787 
     12 C12        30.7044   -2.6862   -5.7827 C.ar      12 UNK        -0.0862 
     13 C13        29.8021   -3.5462   -5.1506 C.ar      12 UNK        -0.0733 
     14 C14        29.5646   -3.4096   -3.7796 C.ar      12 UNK        -0.0832 
     15 C15        29.0980   -4.6404   -5.9357 C.3       12 UNK         0.0240 
     16 S16        27.4587   -4.1054   -6.5106 S.3       12 UNK        -0.2522 
     17 C17        27.8561   -3.2307   -8.0643 C.3       12 UNK        -0.0967 
     18 CA         27.3164   -1.7812   -8.1375 C.3       5 UNK         0.0660 
     19 N          25.9104   -1.6813   -7.7368 N.am      5 UNK        -0.4015 
     20 C          25.1402   -0.5921   -7.8578 C.2       4 UNK         0.4946 
     21 O          25.5174    0.4499   -8.3962 O.2       4 UNK        -0.5353 
     22 CA         23.7366   -0.6496   -7.2322 C.3       4 UNK         0.0277 
     23 CB         22.6907   -0.9817   -8.3079 C.3       4 UNK        -0.1981 
     24 N          23.6007   -1.5887   -6.1092 N.am      4 UNK        -0.4209 
     25 C          24.2924   -1.5316   -4.9615 C.2       3 UNK         0.4942 
     26 O          25.2040   -0.7299   -4.7441 O.2       3 UNK        -0.5208 
     27 CA         23.9272   -2.5659   -3.8927 C.3       3 UNK         0.0250 
     28 CB         24.7985   -3.8256   -4.0276 C.3       3 UNK        -0.1990 
     29 N          24.1377   -1.9784   -2.5717 N.am      3 UNK        -0.4232 
     30 C          23.2940   -2.0863   -1.5388 C.2       2 UNK         0.4993 
     31 O          22.2445   -2.7317   -1.5771 O.2       2 UNK        -0.5286 
     32 CA         23.7266   -1.3996   -0.2357 C.3       2 UNK         0.0209 
     33 CB         22.7086   -1.5777    0.9115 C.3       2 UNK        -0.1931 
     34 N          25.0313   -1.9274    0.1561 N.am      2 UNK        -0.4546 
     35 C          25.9112   -1.3266    0.9666 C.2       1 UNK         0.5154 
     36 O          25.7067   -0.2341    1.4993 O.2       1 UNK        -0.5181 
     37 C          28.2370   -0.7582   -7.4376 C.2       5 UNK         0.5014 
     38 O          29.2364   -0.3614   -8.0394 O.2       5 UNK        -0.5248 
     39 N          27.8536   -0.2649   -6.2497 N.am      6 UNK        -0.4434 
     40 CA         28.5254    0.8419   -5.5612 C.3       6 UNK         0.0363 
     41 CB         27.8845    1.0413   -4.1814 C.3       6 UNK        -0.1936 
     42 C          28.5141    2.1665   -6.3501 C.2       6 UNK         0.5081 
     43 O          29.3798    3.0074   -6.1097 O.2       6 UNK        -0.5248 
     44 N          27.5580    2.3249   -7.2761 N.am      7 UNK        -0.4718 
     45 CA         27.4859    3.4362   -8.2224 C.3       7 UNK         0.0273 
     46 CB         26.0717    4.0393   -8.1898 C.3       7 UNK        -0.1935 
     47 C          27.8417    2.9765   -9.6446 C.2       7 UNK         0.5018 
     48 O          28.5820    3.6805  -10.3309 O.2       7 UNK        -0.5186 
     49 N          27.2972    1.8273  -10.0746 N.am      8 UNK        -0.4240 
     50 CA         27.4135    1.3249  -11.4468 C.3       8 UNK         0.0235 
     51 CB         26.3283    0.2680  -11.7107 C.3       8 UNK        -0.2000 
     52 C          28.8086    0.7848  -11.8027 C.2       8 UNK         0.4941 
     53 O          29.2812    1.0503  -12.9089 O.2       8 UNK        -0.5273 
     54 N          29.4418    0.0456  -10.8805 N.am      9 UNK        -0.4262 
     55 CA         30.8182   -0.4409  -11.0269 C.3       9 UNK         0.0264 
     56 CB         30.9589   -1.8447  -10.4123 C.3       9 UNK        -0.1955 
     57 C          31.8116    0.5377  -10.3849 C.2       9 UNK         0.5031 
     58 O          32.9266    0.6772  -10.8879 O.2       9 UNK        -0.5390 
     59 N          31.3950    1.1936   -9.2905 N.am      10 UNK        -0.4204 
     60 CA         32.0561    2.2844   -8.5562 C.3       10 UNK         0.0237 
     61 CB         32.2840    3.5081   -9.4652 C.3       10 UNK        -0.1985 
     62 C          33.3478    1.9083   -7.8064 C.2       10 UNK         0.4970 
     63 O          33.6595    2.5640   -6.8122 O.2       10 UNK        -0.4914 
     64 N          34.0575    0.8699   -8.2650 N.am      11 UNK        -0.4285 
     65 CA         35.2952    0.3230   -7.6814 C.3       11 UNK         0.1007 
     66 C          36.5309    1.2700   -7.7896 C.2       11 UNK         0.5703 
     67 N          36.5157    2.2804   -8.6517 N.am      11 UNK        -0.7361 
     68 O          37.5359    1.0708   -7.1105 O.2       11 UNK        -0.4986 
     69 C69        35.0901   -0.2442   -6.2450 C.3       12 UNK        -0.0947 
     70 S70        33.8932   -1.6202   -6.1705 S.3       12 UNK        -0.2240 
     71 C71        32.3450   -0.7613   -5.7475 C.3       12 UNK         0.0194 
     72 H72        27.2540   -5.8634   -0.0645 H         1 UNK         0.0906 
     73 H73        27.1966   -6.5394    1.5642 H         1 UNK         0.0906 
     74 H74        25.6981   -6.2289    0.6838 H         1 UNK         0.0906 
     75 H75        27.6989   -3.6617   -0.0628 H         1 UNK         0.3140 
     76 H76        27.3837   -2.0382    2.3128 H         1 UNK         0.1085 
     77 H77        29.3793   -1.7225    0.9928 H         1 UNK         0.0836 
     78 H78        28.4543   -0.2576    0.9395 H         1 UNK         0.0836 
     79 H79        29.8767   -3.2869   -1.0974 H         1 UNK         0.0731 
     80 H80        30.8304   -1.8221   -1.0590 H         1 UNK         0.0731 
     81 H81        31.6384   -0.8064   -3.1125 H         1 UNK         0.1312 
     82 H82        30.8961   -2.7851   -6.8421 H         1 UNK         0.1406 
     83 H83        28.8643   -4.0711   -3.2879 H         1 UNK         0.1631 
     84 H84        28.9718   -5.5189   -5.3011 H         1 UNK         0.0717 
     85 H85        29.7064   -4.9676   -6.7803 H         1 UNK         0.0717 
     86 H86        28.9301   -3.2560   -8.2559 H         1 UNK         0.0934 
     87 H87        27.4132   -3.8127   -8.8741 H         1 UNK         0.0934 
     88 H88        27.3433   -1.5039   -9.1913 H         1 UNK         0.0739 
     89 H89        25.5331   -2.4887   -7.2623 H         1 UNK         0.3093 
     90 H90        23.5232    0.3494   -6.8461 H         1 UNK         0.0818 
     91 H91        21.6771   -0.9136   -7.9123 H         1 UNK         0.0819 
     92 H92        22.7557   -0.2838   -9.1443 H         1 UNK         0.0819 
     93 H93        22.8288   -1.9859   -8.7108 H         1 UNK         0.0819 
     94 H94        22.8834   -2.2941   -6.2030 H         1 UNK         0.3041 
     95 H95        22.8777   -2.8388   -4.0241 H         1 UNK         0.0784 
     96 H96        24.6714   -4.2902   -5.0061 H         1 UNK         0.0793 
     97 H97        25.8583   -3.5958   -3.9075 H         1 UNK         0.0793 
     98 H98        24.5326   -4.5719   -3.2789 H         1 UNK         0.0793 
     99 H99        24.9551   -1.3857   -2.4949 H         1 UNK         0.3024 
    100 H100       23.8220   -0.3330   -0.4523 H         1 UNK         0.1171 
    101 H101       23.0097   -1.0274    1.8029 H         1 UNK         0.0786 
    102 H102       21.7245   -1.2060    0.6229 H         1 UNK         0.0786 
    103 H103       22.5959   -2.6265    1.1887 H         1 UNK         0.0786 
    104 H104       25.2896   -2.8171   -0.2481 H         1 UNK         0.2977 
    105 H105       27.0027   -0.6112   -5.8176 H         1 UNK         0.3127 
    106 H106       29.5682    0.5543   -5.4175 H         1 UNK         0.0770 
    107 H107       26.8582    1.4015   -4.2612 H         1 UNK         0.0814 
    108 H108       27.8667    0.1083   -3.6210 H         1 UNK         0.0814 
    109 H109       28.4438    1.7679   -3.5908 H         1 UNK         0.0814 
    110 H110       26.8836    1.5791   -7.4096 H         1 UNK         0.2983 
    111 H111       28.1932    4.2212   -7.9452 H         1 UNK         0.0947 
    112 H112       25.8330    4.4296   -7.2004 H         1 UNK         0.0806 
    113 H113       25.3089    3.3045   -8.4512 H         1 UNK         0.0806 
    114 H114       25.9839    4.8673   -8.8945 H         1 UNK         0.0806 
    115 H115       26.6581    1.3272   -9.4583 H         1 UNK         0.3000 
    116 H116       27.2169    2.1649  -12.1171 H         1 UNK         0.0850 
    117 H117       26.3604   -0.0715  -12.7470 H         1 UNK         0.0810 
    118 H118       25.3312    0.6721  -11.5341 H         1 UNK         0.0810 
    119 H119       26.4470   -0.6106  -11.0788 H         1 UNK         0.0810 
    120 H120       29.0153   -0.0888   -9.9709 H         1 UNK         0.3040 
    121 H121       31.0689   -0.5213  -12.0869 H         1 UNK         0.0766 
    122 H122       30.8594   -1.8363   -9.3276 H         1 UNK         0.0812 
    123 H123       31.9405   -2.2639  -10.6370 H         1 UNK         0.0812 
    124 H124       30.2144   -2.5319  -10.8143 H         1 UNK         0.0812 
    125 H125       30.5143    0.8839   -8.8894 H         1 UNK         0.3205 
    126 H126       31.3434    2.5828   -7.7878 H         1 UNK         0.0754 
    127 H127       32.6709    4.3521   -8.8926 H         1 UNK         0.0769 
    128 H128       31.3532    3.8332   -9.9302 H         1 UNK         0.0769 
    129 H129       33.0009    3.2999  -10.2599 H         1 UNK         0.0769 
    130 H130       33.7632    0.4653   -9.1479 H         1 UNK         0.2981 
    131 H131       35.5569   -0.5214   -8.3197 H         1 UNK         0.0541 
    132 H132       35.7076    2.4460   -9.2295 H         1 UNK         0.3459 
    133 H133       37.3224    2.8800   -8.7239 H         1 UNK         0.3459 
    134 H134       34.8034    0.5416   -5.5453 H         1 UNK         0.0612 
    135 H135       36.0297   -0.6459   -5.8624 H         1 UNK         0.0612 
    136 H136       32.5558    0.1023   -5.1153 H         1 UNK         0.0624 
    137 H137       31.8852   -0.3763   -6.6584 H         1 UNK         0.0624 
@<TRIPOS>BOND
     1    1    2 1    
     2    1   72 1    
     3    1   73 1    
     4    1   74 1    
     5    2    3 2    
     6    2    4 am   BACKBONE|DICT|INTERRES
     7    4    5 1    
     8    4   75 1    
     9    5    6 1    
    10    5   35 1    
    11    5   76 1    
    12    6    7 1    
    13    6   77 1    
    14    6   78 1    
    15    7    8 1    
    16    8    9 1    
    17    8   79 1    
    18    8   80 1    
    19    9   10 ar   
    20    9   14 ar   
    21   10   11 ar   
    22   10   81 1    
    23   11   12 ar   
    24   11   71 1    
    25   12   13 ar   
    26   12   82 1    
    27   13   14 ar   
    28   13   15 1    
    29   14   83 1    
    30   15   16 1    
    31   15   84 1    
    32   15   85 1    
    33   16   17 1    
    34   17   18 1    
    35   17   86 1    
    36   17   87 1    
    37   18   19 1    
    38   18   37 1    
    39   18   88 1    
    40   19   20 am   BACKBONE|DICT|INTERRES
    41   19   89 1    
    42   20   21 2    
    43   20   22 1    
    44   22   23 1    
    45   22   24 1    
    46   22   90 1    
    47   23   91 1    
    48   23   92 1    
    49   23   93 1    
    50   24   25 am   BACKBONE|DICT|INTERRES
    51   24   94 1    
    52   25   26 2    
    53   25   27 1    
    54   27   28 1    
    55   27   29 1    
    56   27   95 1    
    57   28   96 1    
    58   28   97 1    
    59   28   98 1    
    60   29   30 am   BACKBONE|DICT|INTERRES
    61   29   99 1    
    62   30   31 2    
    63   30   32 1    
    64   32   33 1    
    65   32   34 1    
    66   32  100 1    
    67   33  101 1    
    68   33  102 1    
    69   33  103 1    
    70   34   35 am   BACKBONE|DICT|INTERRES
    71   34  104 1    
    72   35   36 2    
    73   37   38 2    
    74   37   39 am   BACKBONE|DICT|INTERRES
    75   39   40 1    
    76   39  105 1    
    77   40   41 1    
    78   40   42 1    
    79   40  106 1    
    80   41  107 1    
    81   41  108 1    
    82   41  109 1    
    83   42   43 2    
    84   42   44 am   BACKBONE|DICT|INTERRES
    85   44   45 1    
    86   44  110 1    
    87   45   46 1    
    88   45   47 1    
    89   45  111 1    
    90   46  112 1    
    91   46  113 1    
    92   46  114 1    
    93   47   48 2    
    94   47   49 am   BACKBONE|DICT|INTERRES
    95   49   50 1    
    96   49  115 1    
    97   50   51 1    
    98   50   52 1    
    99   50  116 1    
   100   51  117 1    
   101   51  118 1    
   102   51  119 1    
   103   52   53 2    
   104   52   54 am   BACKBONE|DICT|INTERRES
   105   54   55 1    
   106   54  120 1    
   107   55   56 1    
   108   55   57 1    
   109   55  121 1    
   110   56  122 1    
   111   56  123 1    
   112   56  124 1    
   113   57   58 2    
   114   57   59 am   BACKBONE|DICT|INTERRES
   115   59   60 1    
   116   59  125 1    
   117   60   61 1    
   118   60   62 1    
   119   60  126 1    
   120   61  127 1    
   121   61  128 1    
   122   61  129 1    
   123   62   63 2    
   124   62   64 am   BACKBONE|DICT|INTERRES
   125   64   65 1    
   126   64  130 1    
   127   65   66 1    
   128   65   69 1    
   129   65  131 1    
   130   66   67 am   BACKBONE|DICT|INTERRES
   131   66   68 2    
   132   67  132 1    
   133   67  133 1    
   134   69   70 1    
   135   69  134 1    
   136   69  135 1    
   137   70   71 1    
   138   71  136 1    
   139   71  137 1    
@<TRIPOS>SUBSTRUCTURE
     1 UNK         1 GROUP             0       ****    0 ROOT    
