@<TRIPOS>MOLECULE
3R137
137   139    1
SMALL
USER_CHARGES


@<TRIPOS>ATOM
      1 CA         24.2866   -5.7885   -1.4157 C.3       0 UNK        -0.2020 
      2 C          25.5664   -5.8289   -2.2485 C.2       0 UNK         0.4855 
      3 O          25.7253   -6.7443   -3.0530 O.2       0 UNK        -0.5197 
      4 N          26.5124   -4.8906   -2.0921 N.am      1 UNK        -0.4892 
      5 CA         26.4777   -3.7046   -1.2245 C.3       1 UNK         0.0835 
      6 C6         27.8432   -2.9719   -1.1748 C.3       12 UNK        -0.0855 
      7 S7         29.1986   -4.0759   -0.6495 S.3       12 UNK        -0.2931 
      8 C8         30.6744   -3.1256   -1.1611 C.3       12 UNK         0.0378 
      9 C9         30.9734   -3.0790   -2.6632 C.ar      12 UNK        -0.0802 
     10 C10        32.0005   -2.2333   -3.0990 C.ar      12 UNK        -0.0944 
     11 C11        32.3442   -2.1600   -4.4509 C.ar      12 UNK        -0.0787 
     12 C12        31.6259   -2.9161   -5.3777 C.ar      12 UNK        -0.0862 
     13 C13        30.5857   -3.7569   -4.9744 C.ar      12 UNK        -0.0733 
     14 C14        30.2893   -3.8585   -3.6093 C.ar      12 UNK        -0.0832 
     15 C15        29.8518   -4.5612   -6.0506 C.3       12 UNK         0.0240 
     16 S16        28.1316   -5.0717   -5.6878 S.3       12 UNK        -0.2522 
     17 C17        27.2728   -3.5612   -5.1299 C.3       12 UNK        -0.0967 
     18 CA         26.9100   -2.5285   -6.2248 C.3       5 UNK         0.0660 
     19 N          25.7116   -1.7662   -5.8504 N.am      5 UNK        -0.4015 
     20 C          25.0947   -0.8775   -6.6439 C.2       4 UNK         0.4946 
     21 O          25.4359   -0.6367   -7.8018 O.2       4 UNK        -0.5353 
     22 CA         23.9239   -0.0897   -6.0354 C.3       4 UNK         0.0277 
     23 CB         22.6311   -0.9189   -6.0869 C.3       4 UNK        -0.1981 
     24 N          24.1556    0.3623   -4.6614 N.am      4 UNK        -0.4209 
     25 C          25.1689    1.1245   -4.2306 C.2       3 UNK         0.4942 
     26 O          26.0795    1.5141   -4.9586 O.2       3 UNK        -0.5208 
     27 CA         25.2004    1.5082   -2.7375 C.3       3 UNK         0.0250 
     28 CB         24.4347    2.8225   -2.4921 C.3       3 UNK        -0.1990 
     29 N          24.7669    0.4460   -1.8153 N.am      3 UNK        -0.4232 
     30 C          23.5594   -0.1270   -1.6971 C.2       2 UNK         0.4993 
     31 O          22.5701    0.2283   -2.3405 O.2       2 UNK        -0.5286 
     32 CA         23.4559   -1.3350   -0.7439 C.3       2 UNK         0.0209 
     33 CB         22.2586   -2.2469   -1.0908 C.3       2 UNK        -0.1931 
     34 N          24.6814   -2.1459   -0.6430 N.am      2 UNK        -0.4546 
     35 C          25.3554   -2.7327   -1.6455 C.2       1 UNK         0.5154 
     36 O          25.1304   -2.5395   -2.8447 O.2       1 UNK        -0.5181 
     37 C          28.0950   -1.5857   -6.5104 C.2       5 UNK         0.5014 
     38 O          28.7409   -1.7031   -7.5528 O.2       5 UNK        -0.5248 
     39 N          28.3302   -0.6438   -5.5859 N.am      6 UNK        -0.4434 
     40 CA         29.4090    0.3364   -5.6652 C.3       6 UNK         0.0363 
     41 CB         29.5578    1.0596   -4.3178 C.3       6 UNK        -0.1936 
     42 C          29.2269    1.3347   -6.8161 C.2       6 UNK         0.5081 
     43 O          30.2076    1.6794   -7.4750 O.2       6 UNK        -0.5248 
     44 N          27.9770    1.7489   -7.0614 N.am      7 UNK        -0.4718 
     45 CA         27.5785    2.5867   -8.1919 C.3       7 UNK         0.0273 
     46 CB         26.1211    3.0388   -8.0102 C.3       7 UNK        -0.1935 
     47 C          27.7689    1.8814   -9.5444 C.2       7 UNK         0.5018 
     48 O          28.2694    2.5085  -10.4779 O.2       7 UNK        -0.5186 
     49 N          27.3990    0.5935   -9.6212 N.am      8 UNK        -0.4240 
     50 CA         27.5926   -0.2544  -10.8015 C.3       8 UNK         0.0235 
     51 CB         26.8240   -1.5747  -10.6309 C.3       8 UNK        -0.2000 
     52 C          29.0762   -0.5212  -11.1045 C.2       8 UNK         0.4941 
     53 O          29.4755   -0.4535  -12.2677 O.2       8 UNK        -0.5273 
     54 N          29.8678   -0.7967  -10.0581 N.am      9 UNK        -0.4262 
     55 CA         31.3208   -0.9739  -10.1431 C.3       9 UNK         0.0264 
     56 CB         31.8197   -1.6276   -8.8473 C.3       9 UNK        -0.1955 
     57 C          32.0876    0.3359  -10.4015 C.2       9 UNK         0.5031 
     58 O          33.2027    0.2819  -10.9220 O.2       9 UNK        -0.5390 
     59 N          31.4881    1.4708  -10.0145 N.am      10 UNK        -0.4204 
     60 CA         32.0279    2.8334  -10.0349 C.3       10 UNK         0.0237 
     61 CB         32.3123    3.3039  -11.4774 C.3       10 UNK        -0.1985 
     62 C          33.2275    3.0118   -9.0828 C.2       10 UNK         0.4970 
     63 O          34.1431    3.7774   -9.3912 O.2       10 UNK        -0.4914 
     64 N          33.1989    2.3113   -7.9402 N.am      11 UNK        -0.4285 
     65 CA         34.2202    2.3984   -6.8830 C.3       11 UNK         0.1007 
     66 C          34.0013    3.5672   -5.8786 C.2       11 UNK         0.5703 
     67 N          32.8744    4.2698   -5.9107 N.am      11 UNK        -0.7361 
     68 O          34.8800    3.8548   -5.0694 O.2       11 UNK        -0.4986 
     69 C69        34.4456    1.0348   -6.1755 C.3       12 UNK        -0.0947 
     70 S70        32.9686    0.3888   -5.3276 S.3       12 UNK        -0.2240 
     71 C71        33.5085   -1.2947   -4.9151 C.3       12 UNK         0.0194 
     72 H72        23.8204   -6.7733   -1.3943 H         1 UNK         0.0906 
     73 H73        24.4764   -5.4999   -0.3831 H         1 UNK         0.0906 
     74 H74        23.5702   -5.0930   -1.8519 H         1 UNK         0.0906 
     75 H75        27.3472   -4.9769   -2.6508 H         1 UNK         0.3140 
     76 H76        26.2643   -4.0558   -0.2131 H         1 UNK         0.1085 
     77 H77        28.0903   -2.5327   -2.1414 H         1 UNK         0.0836 
     78 H78        27.8032   -2.1394   -0.4695 H         1 UNK         0.0836 
     79 H79        30.5779   -2.1074   -0.7808 H         1 UNK         0.0731 
     80 H80        31.5400   -3.5588   -0.6581 H         1 UNK         0.0731 
     81 H81        32.5501   -1.6412   -2.3796 H         1 UNK         0.1312 
     82 H82        31.8915   -2.8606   -6.4221 H         1 UNK         0.1406 
     83 H83        29.5204   -4.5456   -3.2918 H         1 UNK         0.1631 
     84 H84        30.4318   -5.4635   -6.2474 H         1 UNK         0.0717 
     85 H85        29.8443   -4.0058   -6.9887 H         1 UNK         0.0717 
     86 H86        27.8083   -3.0983   -4.3040 H         1 UNK         0.0934 
     87 H87        26.3473   -3.9359   -4.6919 H         1 UNK         0.0934 
     88 H88        26.6744   -3.0616   -7.1484 H         1 UNK         0.0739 
     89 H89        25.3619   -1.9026   -4.9075 H         1 UNK         0.3093 
     90 H90        23.7807    0.8035   -6.6465 H         1 UNK         0.0818 
     91 H91        21.7712   -0.3323   -5.7626 H         1 UNK         0.0819 
     92 H92        22.4250   -1.2601   -7.1025 H         1 UNK         0.0819 
     93 H93        22.6923   -1.8024   -5.4499 H         1 UNK         0.0819 
     94 H94        23.4443    0.1291   -3.9722 H         1 UNK         0.3041 
     95 H95        26.2479    1.6940   -2.4941 H         1 UNK         0.0784 
     96 H96        24.8382    3.6267   -3.1090 H         1 UNK         0.0793 
     97 H97        23.3754    2.7318   -2.7340 H         1 UNK         0.0793 
     98 H98        24.5155    3.1402   -1.4526 H         1 UNK         0.0793 
     99 H99        25.5055    0.0497   -1.2515 H         1 UNK         0.3024 
    100 H100       23.2751   -0.9145    0.2470 H         1 UNK         0.1171 
    101 H101       22.1790   -3.0813   -0.3940 H         1 UNK         0.0786 
    102 H102       22.3442   -2.6574   -2.0978 H         1 UNK         0.0786 
    103 H103       21.3169   -1.6984   -1.0417 H         1 UNK         0.0786 
    104 H104       24.9836   -2.3345    0.3037 H         1 UNK         0.2977 
    105 H105       27.7054   -0.5663   -4.7980 H         1 UNK         0.3127 
    106 H106       30.3224   -0.2228   -5.8636 H         1 UNK         0.0770 
    107 H107       28.6483    1.5917   -4.0381 H         1 UNK         0.0814 
    108 H108       30.3639    1.7934   -4.3589 H         1 UNK         0.0814 
    109 H109       29.8019    0.3583   -3.5195 H         1 UNK         0.0814 
    110 H110       27.2425    1.4746   -6.4118 H         1 UNK         0.2983 
    111 H111       28.2154    3.4740   -8.1883 H         1 UNK         0.0947 
    112 H112       25.8104    3.6931   -8.8257 H         1 UNK         0.0806 
    113 H113       25.9915    3.5932   -7.0804 H         1 UNK         0.0806 
    114 H114       25.4353    2.1913   -7.9907 H         1 UNK         0.0806 
    115 H115       26.9423    0.1638   -8.8209 H         1 UNK         0.3000 
    116 H116       27.1712    0.2726  -11.6602 H         1 UNK         0.0850 
    117 H117       26.9494   -2.2164  -11.5039 H         1 UNK         0.0810 
    118 H118       25.7554   -1.3967  -10.5098 H         1 UNK         0.0810 
    119 H119       27.1684   -2.1344   -9.7606 H         1 UNK         0.0810 
    120 H120       29.4420   -0.9185   -9.1407 H         1 UNK         0.3040 
    121 H121       31.5348   -1.6504  -10.9732 H         1 UNK         0.0766 
    122 H122       32.8982   -1.7890   -8.8757 H         1 UNK         0.0812 
    123 H123       31.6036   -1.0058   -7.9773 H         1 UNK         0.0812 
    124 H124       31.3478   -2.5983   -8.6952 H         1 UNK         0.0812 
    125 H125       30.6097    1.3779   -9.5164 H         1 UNK         0.3205 
    126 H126       31.2354    3.4686   -9.6364 H         1 UNK         0.0754 
    127 H127       32.5647    4.3647  -11.4999 H         1 UNK         0.0769 
    128 H128       31.4398    3.1659  -12.1163 H         1 UNK         0.0769 
    129 H129       33.1461    2.7626  -11.9252 H         1 UNK         0.0769 
    130 H130       32.3758    1.7608   -7.7249 H         1 UNK         0.2981 
    131 H131       35.1690    2.6323   -7.3689 H         1 UNK         0.0541 
    132 H132       32.1440    4.0312   -6.5616 H         1 UNK         0.3459 
    133 H133       32.7478    5.0293   -5.2614 H         1 UNK         0.3459 
    134 H134       34.7658    0.2981   -6.9138 H         1 UNK         0.0612 
    135 H135       35.2597    1.1055   -5.4519 H         1 UNK         0.0612 
    136 H136       33.9784   -1.7482   -5.7889 H         1 UNK         0.0624 
    137 H137       34.2764   -1.2460   -4.1419 H         1 UNK         0.0624 
@<TRIPOS>BOND
     1    1    2 1    
     2    1   72 1    
     3    1   73 1    
     4    1   74 1    
     5    2    3 2    
     6    2    4 am   BACKBONE|DICT|INTERRES
     7    4    5 1    
     8    4   75 1    
     9    5    6 1    
    10    5   35 1    
    11    5   76 1    
    12    6    7 1    
    13    6   77 1    
    14    6   78 1    
    15    7    8 1    
    16    8    9 1    
    17    8   79 1    
    18    8   80 1    
    19    9   10 ar   
    20    9   14 ar   
    21   10   11 ar   
    22   10   81 1    
    23   11   12 ar   
    24   11   71 1    
    25   12   13 ar   
    26   12   82 1    
    27   13   14 ar   
    28   13   15 1    
    29   14   83 1    
    30   15   16 1    
    31   15   84 1    
    32   15   85 1    
    33   16   17 1    
    34   17   18 1    
    35   17   86 1    
    36   17   87 1    
    37   18   19 1    
    38   18   37 1    
    39   18   88 1    
    40   19   20 am   BACKBONE|DICT|INTERRES
    41   19   89 1    
    42   20   21 2    
    43   20   22 1    
    44   22   23 1    
    45   22   24 1    
    46   22   90 1    
    47   23   91 1    
    48   23   92 1    
    49   23   93 1    
    50   24   25 am   BACKBONE|DICT|INTERRES
    51   24   94 1    
    52   25   26 2    
    53   25   27 1    
    54   27   28 1    
    55   27   29 1    
    56   27   95 1    
    57   28   96 1    
    58   28   97 1    
    59   28   98 1    
    60   29   30 am   BACKBONE|DICT|INTERRES
    61   29   99 1    
    62   30   31 2    
    63   30   32 1    
    64   32   33 1    
    65   32   34 1    
    66   32  100 1    
    67   33  101 1    
    68   33  102 1    
    69   33  103 1    
    70   34   35 am   BACKBONE|DICT|INTERRES
    71   34  104 1    
    72   35   36 2    
    73   37   38 2    
    74   37   39 am   BACKBONE|DICT|INTERRES
    75   39   40 1    
    76   39  105 1    
    77   40   41 1    
    78   40   42 1    
    79   40  106 1    
    80   41  107 1    
    81   41  108 1    
    82   41  109 1    
    83   42   43 2    
    84   42   44 am   BACKBONE|DICT|INTERRES
    85   44   45 1    
    86   44  110 1    
    87   45   46 1    
    88   45   47 1    
    89   45  111 1    
    90   46  112 1    
    91   46  113 1    
    92   46  114 1    
    93   47   48 2    
    94   47   49 am   BACKBONE|DICT|INTERRES
    95   49   50 1    
    96   49  115 1    
    97   50   51 1    
    98   50   52 1    
    99   50  116 1    
   100   51  117 1    
   101   51  118 1    
   102   51  119 1    
   103   52   53 2    
   104   52   54 am   BACKBONE|DICT|INTERRES
   105   54   55 1    
   106   54  120 1    
   107   55   56 1    
   108   55   57 1    
   109   55  121 1    
   110   56  122 1    
   111   56  123 1    
   112   56  124 1    
   113   57   58 2    
   114   57   59 am   BACKBONE|DICT|INTERRES
   115   59   60 1    
   116   59  125 1    
   117   60   61 1    
   118   60   62 1    
   119   60  126 1    
   120   61  127 1    
   121   61  128 1    
   122   61  129 1    
   123   62   63 2    
   124   62   64 am   BACKBONE|DICT|INTERRES
   125   64   65 1    
   126   64  130 1    
   127   65   66 1    
   128   65   69 1    
   129   65  131 1    
   130   66   67 am   BACKBONE|DICT|INTERRES
   131   66   68 2    
   132   67  132 1    
   133   67  133 1    
   134   69   70 1    
   135   69  134 1    
   136   69  135 1    
   137   70   71 1    
   138   71  136 1    
   139   71  137 1    
@<TRIPOS>SUBSTRUCTURE
     1 UNK         1 GROUP             0       ****    0 ROOT    
