@<TRIPOS>MOLECULE
3R137
137   139    1
SMALL
USER_CHARGES


@<TRIPOS>ATOM
      1 CA         23.6689   -3.5364    0.1907 C.3       0 UNK        -0.2020 
      2 C          23.9858   -2.8529   -1.1355 C.2       0 UNK         0.4855 
      3 O          23.0866   -2.6842   -1.9552 O.2       0 UNK        -0.5197 
      4 N          25.2326   -2.4415   -1.3931 N.am      1 UNK        -0.4892 
      5 CA         26.4046   -2.5398   -0.5136 C.3       1 UNK         0.0835 
      6 C6         27.3071   -3.7534   -0.8654 C.3       12 UNK        -0.0855 
      7 S7         27.7784   -3.8634   -2.6282 S.3       12 UNK        -0.2931 
      8 C8         29.5876   -4.0479   -2.4935 C.3       12 UNK         0.0378 
      9 C9         30.2486   -4.1003   -3.8637 C.ar      12 UNK        -0.0802 
     10 C10        31.2950   -3.2309   -4.1826 C.ar      12 UNK        -0.0944 
     11 C11        31.8737   -3.2453   -5.4577 C.ar      12 UNK        -0.0787 
     12 C12        31.3913   -4.1445   -6.4177 C.ar      12 UNK        -0.0862 
     13 C13        30.3594   -5.0357   -6.1017 C.ar      12 UNK        -0.0733 
     14 C14        29.8123   -5.0217   -4.8173 C.ar      12 UNK        -0.0832 
     15 C15        29.8408   -6.0353   -7.1279 C.3       12 UNK         0.0240 
     16 S16        28.6423   -5.3126   -8.2984 S.3       12 UNK        -0.2522 
     17 C17        27.2865   -4.7111   -7.2231 C.3       12 UNK        -0.0967 
     18 CA         26.8889   -3.2453   -7.5276 C.3       5 UNK         0.0660 
     19 N          25.6214   -2.8686   -6.8926 N.am      5 UNK        -0.4015 
     20 C          24.9785   -1.7150   -7.1243 C.2       4 UNK         0.4946 
     21 O          25.3688   -0.8700   -7.9325 O.2       4 UNK        -0.5353 
     22 CA         23.7273   -1.4013   -6.2876 C.3       4 UNK         0.0277 
     23 CB         23.1867   -2.5936   -5.4638 C.3       4 UNK        -0.1981 
     24 N          23.9755   -0.2283   -5.4400 N.am      4 UNK        -0.4209 
     25 C          24.8847   -0.1260   -4.4592 C.2       3 UNK         0.4942 
     26 O          25.5909   -1.0646   -4.0779 O.2       3 UNK        -0.5208 
     27 CA         25.0594    1.2550   -3.8046 C.3       3 UNK         0.0250 
     28 CB         23.7926    2.1348   -3.8355 C.3       3 UNK        -0.1990 
     29 N          25.4848    1.0487   -2.4270 N.am      3 UNK        -0.4232 
     30 C          26.3681    1.7815   -1.7394 C.2       2 UNK         0.4993 
     31 O          26.8895    2.8117   -2.1666 O.2       2 UNK        -0.5286 
     32 CA         26.7308    1.2741   -0.3305 C.3       2 UNK         0.0209 
     33 CB         26.0342    2.1254    0.7443 C.3       2 UNK        -0.1931 
     34 N          26.3528   -0.1323   -0.1484 N.am      2 UNK        -0.4546 
     35 C          27.1169   -1.1741   -0.5072 C.2       1 UNK         0.5154 
     36 O          28.2939   -1.0671   -0.8519 O.2       1 UNK        -0.5181 
     37 C          28.0198   -2.2362   -7.2243 C.2       5 UNK         0.5014 
     38 O          28.8074   -1.9439   -8.1237 O.2       5 UNK        -0.5248 
     39 N          28.0395   -1.6534   -6.0141 N.am      6 UNK        -0.4434 
     40 CA         29.0102   -0.6206   -5.6434 C.3       6 UNK         0.0363 
     41 CB         28.9486   -0.3459   -4.1345 C.3       6 UNK        -0.1936 
     42 C          28.8469    0.6861   -6.4375 C.2       6 UNK         0.5081 
     43 O          29.8462    1.3430   -6.7333 O.2       6 UNK        -0.5248 
     44 N          27.5996    1.0240   -6.7956 N.am      7 UNK        -0.4718 
     45 CA         27.2740    2.1675   -7.6482 C.3       7 UNK         0.0273 
     46 CB         25.8073    2.5809   -7.4450 C.3       7 UNK        -0.1935 
     47 C          27.5624    1.8690   -9.1264 C.2       7 UNK         0.5018 
     48 O          28.0908    2.7384   -9.8183 O.2       7 UNK        -0.5186 
     49 N          27.2418    0.6455   -9.5746 N.am      8 UNK        -0.4240 
     50 CA         27.5081    0.1577  -10.9315 C.3       8 UNK         0.0235 
     51 CB         26.8163   -1.1981  -11.1433 C.3       8 UNK        -0.2000 
     52 C          29.0108    0.0590  -11.2457 C.2       8 UNK         0.4941 
     53 O          29.4324    0.4888  -12.3201 O.2       8 UNK        -0.5273 
     54 N          29.7928   -0.4759  -10.2970 N.am      9 UNK        -0.4262 
     55 CA         31.2555   -0.5354  -10.3607 C.3       9 UNK         0.0264 
     56 CB         31.7635   -1.5503   -9.3234 C.3       9 UNK        -0.1955 
     57 C          31.9256    0.8311  -10.1321 C.2       9 UNK         0.5031 
     58 O          33.0659    1.0138  -10.5605 O.2       9 UNK        -0.5390 
     59 N          31.2188    1.7458   -9.4497 N.am      10 UNK        -0.4204 
     60 CA         31.6485    3.0826   -9.0230 C.3       10 UNK         0.0237 
     61 CB         31.8619    4.0079  -10.2397 C.3       10 UNK        -0.1985 
     62 C          32.8590    3.0410   -8.0690 C.2       10 UNK         0.4970 
     63 O          33.7265    3.9144   -8.1340 O.2       10 UNK        -0.4914 
     64 N          32.8964    2.0184   -7.2060 N.am      11 UNK        -0.4285 
     65 CA         33.9639    1.7833   -6.2228 C.3       11 UNK         0.1007 
     66 C          33.8142    2.5987   -4.9052 C.2       11 UNK         0.5703 
     67 N          32.6930    3.2679   -4.6608 N.am      11 UNK        -0.7361 
     68 O          34.7417    2.6404   -4.1000 O.2       11 UNK        -0.4986 
     69 C69        34.1765    0.2669   -5.9670 C.3       12 UNK        -0.0947 
     70 S70        32.6812   -0.5772   -5.3576 S.3       12 UNK        -0.2240 
     71 C71        33.0344   -2.3112   -5.7898 C.3       12 UNK         0.0194 
     72 H72        24.3597   -4.3562    0.3855 H         1 UNK         0.0906 
     73 H73        23.7201   -2.8248    1.0142 H         1 UNK         0.0906 
     74 H74        22.6621   -3.9535    0.1732 H         1 UNK         0.0906 
     75 H75        25.4332   -2.0533   -2.3119 H         1 UNK         0.3140 
     76 H76        26.0902   -2.6756    0.5223 H         1 UNK         0.1085 
     77 H77        28.1996   -3.7541   -0.2369 H         1 UNK         0.0836 
     78 H78        26.7794   -4.6749   -0.6164 H         1 UNK         0.0836 
     79 H79        29.8213   -4.9622   -1.9465 H         1 UNK         0.0731 
     80 H80        29.9835   -3.2165   -1.9076 H         1 UNK         0.0731 
     81 H81        31.6543   -2.5305   -3.4412 H         1 UNK         0.1312 
     82 H82        31.8225   -4.1603   -7.4092 H         1 UNK         0.1406 
     83 H83        29.0200   -5.7122   -4.5619 H         1 UNK         0.1631 
     84 H84        29.3775   -6.8888   -6.6302 H         1 UNK         0.0717 
     85 H85        30.6810   -6.4386   -7.6948 H         1 UNK         0.0717 
     86 H86        26.4315   -5.3660   -7.3981 H         1 UNK         0.0934 
     87 H87        27.5324   -4.8290   -6.1694 H         1 UNK         0.0934 
     88 H88        26.7049   -3.1863   -8.6017 H         1 UNK         0.0739 
     89 H89        25.2561   -3.4917   -6.1875 H         1 UNK         0.3093 
     90 H90        22.9513   -1.1145   -6.9988 H         1 UNK         0.0818 
     91 H91        22.9322   -3.4353   -6.1091 H         1 UNK         0.0819 
     92 H92        23.8967   -2.9499   -4.7168 H         1 UNK         0.0819 
     93 H93        22.2766   -2.3154   -4.9321 H         1 UNK         0.0819 
     94 H94        23.4519    0.5995   -5.6871 H         1 UNK         0.3041 
     95 H95        25.8589    1.7610   -4.3488 H         1 UNK         0.0784 
     96 H96        23.9510    3.0674   -3.2932 H         1 UNK         0.0793 
     97 H97        23.5170    2.4092   -4.8542 H         1 UNK         0.0793 
     98 H98        22.9392    1.6301   -3.3804 H         1 UNK         0.0793 
     99 H99        25.1624    0.1866   -2.0127 H         1 UNK         0.3024 
    100 H100       27.8117    1.3820   -0.2108 H         1 UNK         0.1171 
    101 H101       26.3153    3.1755    0.6520 H         1 UNK         0.0786 
    102 H102       24.9477    2.0708    0.6642 H         1 UNK         0.0786 
    103 H103       26.3144    1.8038    1.7476 H         1 UNK         0.0786 
    104 H104       25.4055   -0.3105    0.1546 H         1 UNK         0.2977 
    105 H105       27.3398   -1.8964   -5.3228 H         1 UNK         0.3127 
    106 H106       29.9943   -1.0224   -5.8785 H         1 UNK         0.0770 
    107 H107       27.9924    0.0807   -3.8350 H         1 UNK         0.0814 
    108 H108       29.7264    0.3586   -3.8372 H         1 UNK         0.0814 
    109 H109       29.1030   -1.2564   -3.5573 H         1 UNK         0.0814 
    110 H110       26.8501    0.3788   -6.5890 H         1 UNK         0.2983 
    111 H111       27.9034    3.0110   -7.3543 H         1 UNK         0.0947 
    112 H112       25.6276    2.9151   -6.4242 H         1 UNK         0.0806 
    113 H113       25.1168    1.7660   -7.6629 H         1 UNK         0.0806 
    114 H114       25.5446    3.4114   -8.1018 H         1 UNK         0.0806 
    115 H115       26.7521    0.0135   -8.9461 H         1 UNK         0.3000 
    116 H116       27.0693    0.8750  -11.6283 H         1 UNK         0.0850 
    117 H117       26.9193   -1.5286  -12.1776 H         1 UNK         0.0810 
    118 H118       25.7499   -1.1411  -10.9239 H         1 UNK         0.0810 
    119 H119       27.2487   -1.9736  -10.5116 H         1 UNK         0.0810 
    120 H120       29.3588   -0.8850   -9.4684 H         1 UNK         0.3040 
    121 H121       31.5435   -0.8852  -11.3543 H         1 UNK         0.0766 
    122 H122       31.4968   -1.2528   -8.3082 H         1 UNK         0.0812 
    123 H123       32.8496   -1.6430   -9.3634 H         1 UNK         0.0812 
    124 H124       31.3443   -2.5412   -9.4993 H         1 UNK         0.0812 
    125 H125       30.3027    1.4701   -9.1218 H         1 UNK         0.3205 
    126 H126       30.8209    3.4914   -8.4413 H         1 UNK         0.0754 
    127 H127       32.0483    5.0347   -9.9230 H         1 UNK         0.0769 
    128 H128       30.9811    4.0227  -10.8820 H         1 UNK         0.0769 
    129 H129       32.7135    3.6938  -10.8440 H         1 UNK         0.0769 
    130 H130       32.1053    1.3885   -7.1612 H         1 UNK         0.2981 
    131 H131       34.8944    2.1433   -6.6657 H         1 UNK         0.0541 
    132 H132       31.9222    3.2204   -5.3078 H         1 UNK         0.3459 
    133 H133       32.6093    3.7989   -3.8088 H         1 UNK         0.3459 
    134 H134       34.9889    0.0998   -5.2577 H         1 UNK         0.0612 
    135 H135       34.4885   -0.2112   -6.8968 H         1 UNK         0.0612 
    136 H136       33.9203   -2.6399   -5.2452 H         1 UNK         0.0624 
    137 H137       33.2799   -2.3682   -6.8508 H         1 UNK         0.0624 
@<TRIPOS>BOND
     1    1    2 1    
     2    1   72 1    
     3    1   73 1    
     4    1   74 1    
     5    2    3 2    
     6    2    4 am   BACKBONE|DICT|INTERRES
     7    4    5 1    
     8    4   75 1    
     9    5    6 1    
    10    5   35 1    
    11    5   76 1    
    12    6    7 1    
    13    6   77 1    
    14    6   78 1    
    15    7    8 1    
    16    8    9 1    
    17    8   79 1    
    18    8   80 1    
    19    9   10 ar   
    20    9   14 ar   
    21   10   11 ar   
    22   10   81 1    
    23   11   12 ar   
    24   11   71 1    
    25   12   13 ar   
    26   12   82 1    
    27   13   14 ar   
    28   13   15 1    
    29   14   83 1    
    30   15   16 1    
    31   15   84 1    
    32   15   85 1    
    33   16   17 1    
    34   17   18 1    
    35   17   86 1    
    36   17   87 1    
    37   18   19 1    
    38   18   37 1    
    39   18   88 1    
    40   19   20 am   BACKBONE|DICT|INTERRES
    41   19   89 1    
    42   20   21 2    
    43   20   22 1    
    44   22   23 1    
    45   22   24 1    
    46   22   90 1    
    47   23   91 1    
    48   23   92 1    
    49   23   93 1    
    50   24   25 am   BACKBONE|DICT|INTERRES
    51   24   94 1    
    52   25   26 2    
    53   25   27 1    
    54   27   28 1    
    55   27   29 1    
    56   27   95 1    
    57   28   96 1    
    58   28   97 1    
    59   28   98 1    
    60   29   30 am   BACKBONE|DICT|INTERRES
    61   29   99 1    
    62   30   31 2    
    63   30   32 1    
    64   32   33 1    
    65   32   34 1    
    66   32  100 1    
    67   33  101 1    
    68   33  102 1    
    69   33  103 1    
    70   34   35 am   BACKBONE|DICT|INTERRES
    71   34  104 1    
    72   35   36 2    
    73   37   38 2    
    74   37   39 am   BACKBONE|DICT|INTERRES
    75   39   40 1    
    76   39  105 1    
    77   40   41 1    
    78   40   42 1    
    79   40  106 1    
    80   41  107 1    
    81   41  108 1    
    82   41  109 1    
    83   42   43 2    
    84   42   44 am   BACKBONE|DICT|INTERRES
    85   44   45 1    
    86   44  110 1    
    87   45   46 1    
    88   45   47 1    
    89   45  111 1    
    90   46  112 1    
    91   46  113 1    
    92   46  114 1    
    93   47   48 2    
    94   47   49 am   BACKBONE|DICT|INTERRES
    95   49   50 1    
    96   49  115 1    
    97   50   51 1    
    98   50   52 1    
    99   50  116 1    
   100   51  117 1    
   101   51  118 1    
   102   51  119 1    
   103   52   53 2    
   104   52   54 am   BACKBONE|DICT|INTERRES
   105   54   55 1    
   106   54  120 1    
   107   55   56 1    
   108   55   57 1    
   109   55  121 1    
   110   56  122 1    
   111   56  123 1    
   112   56  124 1    
   113   57   58 2    
   114   57   59 am   BACKBONE|DICT|INTERRES
   115   59   60 1    
   116   59  125 1    
   117   60   61 1    
   118   60   62 1    
   119   60  126 1    
   120   61  127 1    
   121   61  128 1    
   122   61  129 1    
   123   62   63 2    
   124   62   64 am   BACKBONE|DICT|INTERRES
   125   64   65 1    
   126   64  130 1    
   127   65   66 1    
   128   65   69 1    
   129   65  131 1    
   130   66   67 am   BACKBONE|DICT|INTERRES
   131   66   68 2    
   132   67  132 1    
   133   67  133 1    
   134   69   70 1    
   135   69  134 1    
   136   69  135 1    
   137   70   71 1    
   138   71  136 1    
   139   71  137 1    
@<TRIPOS>SUBSTRUCTURE
     1 UNK         1 GROUP             0       ****    0 ROOT    
