@<TRIPOS>MOLECULE
3R137
137   139    1
SMALL
USER_CHARGES


@<TRIPOS>ATOM
      1 CA         24.5586   -6.5723   -4.5221 C.3       0 UNK        -0.2020 
      2 C          25.3213   -5.5212   -3.7312 C.2       0 UNK         0.4855 
      3 O          25.5703   -4.4324   -4.2484 O.2       0 UNK        -0.5197 
      4 N          25.6888   -5.8323   -2.4798 N.am      1 UNK        -0.4892 
      5 CA         26.4052   -4.9457   -1.5518 C.3       1 UNK         0.0835 
      6 C6         27.8685   -4.6835   -2.0180 C.3       12 UNK        -0.0855 
      7 S7         28.9834   -4.3156   -0.6244 S.3       12 UNK        -0.2931 
      8 C8         30.6016   -4.2889   -1.4602 C.3       12 UNK         0.0378 
      9 C9         30.8049   -3.0224   -2.2811 C.ar      12 UNK        -0.0802 
     10 C10        30.9470   -3.0877   -3.6708 C.ar      12 UNK        -0.0944 
     11 C11        31.1736   -1.9302   -4.4237 C.ar      12 UNK        -0.0787 
     12 C12        31.2535   -0.6981   -3.7620 C.ar      12 UNK        -0.0862 
     13 C13        31.0755   -0.6121   -2.3783 C.ar      12 UNK        -0.0733 
     14 C14        30.8697   -1.7814   -1.6425 C.ar      12 UNK        -0.0832 
     15 C15        31.0780    0.7386   -1.6672 C.3       12 UNK         0.0240 
     16 S16        30.1104    2.0356   -2.5208 S.3       12 UNK        -0.2522 
     17 C17        28.5442    1.1882   -2.9300 C.3       12 UNK        -0.0967 
     18 CA         28.3124    1.1303   -4.4667 C.3       5 UNK         0.0660 
     19 N          27.6405   -0.0995   -4.8929 N.am      5 UNK        -0.4015 
     20 C          27.5811   -0.5478   -6.1568 C.2       4 UNK         0.4946 
     21 O          28.1682   -0.0227   -7.1037 O.2       4 UNK        -0.5353 
     22 CA         26.6850   -1.7720   -6.4230 C.3       4 UNK         0.0277 
     23 CB         27.5084   -3.0683   -6.3968 C.3       4 UNK        -0.1981 
     24 N          25.5680   -1.8901   -5.4813 N.am      4 UNK        -0.4209 
     25 C          24.5531   -1.0181   -5.3955 C.2       3 UNK         0.4942 
     26 O          24.4272   -0.0441   -6.1361 O.2       3 UNK        -0.5208 
     27 CA         23.5532   -1.2236   -4.2464 C.3       3 UNK         0.0250 
     28 CB         22.5700   -2.3605   -4.5665 C.3       3 UNK        -0.1990 
     29 N          24.2118   -1.4818   -2.9627 N.am      3 UNK        -0.4232 
     30 C          25.0597   -0.6504   -2.3423 C.2       2 UNK         0.4993 
     31 O          25.3678    0.4553   -2.7866 O.2       2 UNK        -0.5286 
     32 CA         25.7265   -1.1414   -1.0435 C.3       2 UNK         0.0209 
     33 CB         24.7996   -0.9481    0.1723 C.3       2 UNK        -0.1931 
     34 N          26.2540   -2.5128   -1.1308 N.am      2 UNK        -0.4546 
     35 C          25.5811   -3.6655   -1.2609 C.2       1 UNK         0.5154 
     36 O          24.3501   -3.7398   -1.2050 O.2       1 UNK        -0.5181 
     37 C          27.5458    2.3679   -4.9666 C.2       5 UNK         0.5014 
     38 O          28.1487    3.2508   -5.5765 O.2       5 UNK        -0.5248 
     39 N          26.2246    2.3885   -4.7316 N.am      6 UNK        -0.4434 
     40 CA         25.3040    3.4359   -5.1834 C.3       6 UNK         0.0363 
     41 CB         23.9118    3.1890   -4.5809 C.3       6 UNK        -0.1936 
     42 C          25.2254    3.5489   -6.7160 C.2       6 UNK         0.5081 
     43 O          25.1890    4.6621   -7.2406 O.2       6 UNK        -0.5248 
     44 N          25.2357    2.4002   -7.4060 N.am      7 UNK        -0.4718 
     45 CA         25.3104    2.3035   -8.8668 C.3       7 UNK         0.0273 
     46 CB         24.9156    0.8802   -9.2930 C.3       7 UNK        -0.1935 
     47 C          26.6962    2.6595   -9.4390 C.2       7 UNK         0.5018 
     48 O          26.7862    2.9431  -10.6341 O.2       7 UNK        -0.5186 
     49 N          27.7360    2.6214   -8.5907 N.am      8 UNK        -0.4240 
     50 CA         29.1577    2.8185   -8.8910 C.3       8 UNK         0.0235 
     51 CB         29.4375    4.2850   -9.2810 C.3       8 UNK        -0.2000 
     52 C          29.6694    1.8048   -9.9296 C.2       8 UNK         0.4941 
     53 O          30.2459    2.1935  -10.9488 O.2       8 UNK        -0.5273 
     54 N          29.4322    0.5136   -9.6616 N.am      9 UNK        -0.4262 
     55 CA         29.7330   -0.6211  -10.5431 C.3       9 UNK         0.0264 
     56 CB         28.8997   -1.8285  -10.0771 C.3       9 UNK        -0.1955 
     57 C          31.2404   -0.9479  -10.6363 C.2       9 UNK         0.5031 
     58 O          31.6417   -2.0842  -10.3718 O.2       9 UNK        -0.5390 
     59 N          32.0488    0.0586  -10.9980 N.am      10 UNK        -0.4204 
     60 CA         33.5162    0.0985  -11.0861 C.3       10 UNK         0.0237 
     61 CB         34.0619   -0.9137  -12.1137 C.3       10 UNK        -0.1985 
     62 C          34.2085   -0.0409   -9.7187 C.2       10 UNK         0.4970 
     63 O          34.9329    0.8702   -9.3157 O.2       10 UNK        -0.4914 
     64 N          33.9364   -1.1535   -9.0291 N.am      11 UNK        -0.4285 
     65 CA         34.3465   -1.4728   -7.6540 C.3       11 UNK         0.1007 
     66 C          35.8927   -1.5446   -7.4611 C.2       11 UNK         0.5703 
     67 N          36.4004   -1.3741   -6.2467 N.am      11 UNK        -0.7361 
     68 O          36.6425   -1.8161   -8.3980 O.2       11 UNK        -0.4986 
     69 C69        33.6044   -0.5983   -6.5966 C.3       12 UNK        -0.0947 
     70 S70        31.7960   -0.5619   -6.8489 S.3       12 UNK        -0.2240 
     71 C71        31.2830   -2.0618   -5.9441 C.3       12 UNK         0.0194 
     72 H72        24.4177   -7.4905   -3.9523 H         1 UNK         0.0906 
     73 H73        23.5770   -6.1902   -4.8005 H         1 UNK         0.0906 
     74 H74        25.1001   -6.8181   -5.4351 H         1 UNK         0.0906 
     75 H75        25.4189   -6.7280   -2.0967 H         1 UNK         0.3140 
     76 H76        26.4408   -5.4901   -0.6065 H         1 UNK         0.1085 
     77 H77        27.9243   -3.8956   -2.7723 H         1 UNK         0.0836 
     78 H78        28.2599   -5.5780   -2.5057 H         1 UNK         0.0836 
     79 H79        30.7086   -5.1818   -2.0782 H         1 UNK         0.0731 
     80 H80        31.3863   -4.3468   -0.7046 H         1 UNK         0.0731 
     81 H81        30.8838   -4.0448   -4.1706 H         1 UNK         0.1312 
     82 H82        31.4195    0.2130   -4.3170 H         1 UNK         0.1406 
     83 H83        30.7460   -1.7302   -0.5689 H         1 UNK         0.1631 
     84 H84        32.1085    1.0800   -1.5626 H         1 UNK         0.0717 
     85 H85        30.6827    0.6364   -0.6554 H         1 UNK         0.0717 
     86 H86        28.5621    0.1828   -2.5096 H         1 UNK         0.0934 
     87 H87        27.7295    1.6932   -2.4069 H         1 UNK         0.0934 
     88 H88        29.2824    1.1305   -4.9690 H         1 UNK         0.0739 
     89 H89        27.0835   -0.5717   -4.1977 H         1 UNK         0.3093 
     90 H90        26.2638   -1.6594   -7.4236 H         1 UNK         0.0818 
     91 H91        28.2895   -3.0516   -7.1548 H         1 UNK         0.0819 
     92 H92        27.9863   -3.2257   -5.4289 H         1 UNK         0.0819 
     93 H93        26.8845   -3.9372   -6.6067 H         1 UNK         0.0819 
     94 H94        25.5639   -2.7153   -4.8815 H         1 UNK         0.3041 
     95 H95        22.9818   -0.2991   -4.1402 H         1 UNK         0.0784 
     96 H96        22.0584   -2.1786   -5.5126 H         1 UNK         0.0793 
     97 H97        23.0748   -3.3236   -4.6480 H         1 UNK         0.0793 
     98 H98        21.8038   -2.4494   -3.7962 H         1 UNK         0.0793 
     99 H99        24.0375   -2.3802   -2.5198 H         1 UNK         0.3024 
    100 H100       26.5968   -0.5022   -0.8850 H         1 UNK         0.1171 
    101 H101       25.2895   -1.2546    1.0964 H         1 UNK         0.0786 
    102 H102       24.5245    0.1015    0.2844 H         1 UNK         0.0786 
    103 H103       23.8723   -1.5138    0.0805 H         1 UNK         0.0786 
    104 H104       27.2635   -2.5829   -1.1676 H         1 UNK         0.2977 
    105 H105       25.8201    1.6355   -4.1779 H         1 UNK         0.3127 
    106 H106       25.6777    4.3881   -4.8013 H         1 UNK         0.0770 
    107 H107       23.4907    2.2393   -4.9124 H         1 UNK         0.0814 
    108 H108       23.2150    3.9755   -4.8737 H         1 UNK         0.0814 
    109 H109       23.9479    3.1754   -3.4914 H         1 UNK         0.0814 
    110 H110       25.1669    1.5239   -6.8919 H         1 UNK         0.2983 
    111 H111       24.5895    3.0041   -9.2937 H         1 UNK         0.0947 
    112 H112       24.9038    0.7858  -10.3796 H         1 UNK         0.0806 
    113 H113       23.9204    0.6183   -8.9332 H         1 UNK         0.0806 
    114 H114       25.6171    0.1391   -8.9090 H         1 UNK         0.0806 
    115 H115       27.5385    2.3673   -7.6311 H         1 UNK         0.3000 
    116 H116       29.6982    2.6114   -7.9657 H         1 UNK         0.0850 
    117 H117       30.5067    4.4559   -9.4117 H         1 UNK         0.0810 
    118 H118       29.0911    4.9710   -8.5078 H         1 UNK         0.0810 
    119 H119       28.9479    4.5579  -10.2163 H         1 UNK         0.0810 
    120 H120       28.9884    0.2881   -8.7718 H         1 UNK         0.3040 
    121 H121       29.4029   -0.3608  -11.5509 H         1 UNK         0.0766 
    122 H122       27.8359   -1.5922  -10.0437 H         1 UNK         0.0812 
    123 H123       29.2036   -2.1540   -9.0824 H         1 UNK         0.0812 
    124 H124       29.0239   -2.6765  -10.7519 H         1 UNK         0.0812 
    125 H125       31.5823    0.9541  -11.1418 H         1 UNK         0.3205 
    126 H126       33.7576    1.0958  -11.4576 H         1 UNK         0.0754 
    127 H127       35.1428   -0.8124  -12.2200 H         1 UNK         0.0769 
    128 H128       33.6229   -0.7516  -13.0981 H         1 UNK         0.0769 
    129 H129       33.8622   -1.9460  -11.8255 H         1 UNK         0.0769 
    130 H130       33.2747   -1.7978   -9.4533 H         1 UNK         0.2981 
    131 H131       34.0160   -2.5007   -7.5051 H         1 UNK         0.0541 
    132 H132       35.8079   -1.1720   -5.4574 H         1 UNK         0.3459 
    133 H133       37.3981   -1.4435   -6.1205 H         1 UNK         0.3459 
    134 H134       33.9680    0.4298   -6.6340 H         1 UNK         0.0612 
    135 H135       33.7989   -0.9568   -5.5849 H         1 UNK         0.0612 
    136 H136       30.3067   -2.3511   -6.3271 H         1 UNK         0.0624 
    137 H137       31.9630   -2.8770   -6.1940 H         1 UNK         0.0624 
@<TRIPOS>BOND
     1    1    2 1    
     2    1   72 1    
     3    1   73 1    
     4    1   74 1    
     5    2    3 2    
     6    2    4 am   BACKBONE|DICT|INTERRES
     7    4    5 1    
     8    4   75 1    
     9    5    6 1    
    10    5   35 1    
    11    5   76 1    
    12    6    7 1    
    13    6   77 1    
    14    6   78 1    
    15    7    8 1    
    16    8    9 1    
    17    8   79 1    
    18    8   80 1    
    19    9   10 ar   
    20    9   14 ar   
    21   10   11 ar   
    22   10   81 1    
    23   11   12 ar   
    24   11   71 1    
    25   12   13 ar   
    26   12   82 1    
    27   13   14 ar   
    28   13   15 1    
    29   14   83 1    
    30   15   16 1    
    31   15   84 1    
    32   15   85 1    
    33   16   17 1    
    34   17   18 1    
    35   17   86 1    
    36   17   87 1    
    37   18   19 1    
    38   18   37 1    
    39   18   88 1    
    40   19   20 am   BACKBONE|DICT|INTERRES
    41   19   89 1    
    42   20   21 2    
    43   20   22 1    
    44   22   23 1    
    45   22   24 1    
    46   22   90 1    
    47   23   91 1    
    48   23   92 1    
    49   23   93 1    
    50   24   25 am   BACKBONE|DICT|INTERRES
    51   24   94 1    
    52   25   26 2    
    53   25   27 1    
    54   27   28 1    
    55   27   29 1    
    56   27   95 1    
    57   28   96 1    
    58   28   97 1    
    59   28   98 1    
    60   29   30 am   BACKBONE|DICT|INTERRES
    61   29   99 1    
    62   30   31 2    
    63   30   32 1    
    64   32   33 1    
    65   32   34 1    
    66   32  100 1    
    67   33  101 1    
    68   33  102 1    
    69   33  103 1    
    70   34   35 am   BACKBONE|DICT|INTERRES
    71   34  104 1    
    72   35   36 2    
    73   37   38 2    
    74   37   39 am   BACKBONE|DICT|INTERRES
    75   39   40 1    
    76   39  105 1    
    77   40   41 1    
    78   40   42 1    
    79   40  106 1    
    80   41  107 1    
    81   41  108 1    
    82   41  109 1    
    83   42   43 2    
    84   42   44 am   BACKBONE|DICT|INTERRES
    85   44   45 1    
    86   44  110 1    
    87   45   46 1    
    88   45   47 1    
    89   45  111 1    
    90   46  112 1    
    91   46  113 1    
    92   46  114 1    
    93   47   48 2    
    94   47   49 am   BACKBONE|DICT|INTERRES
    95   49   50 1    
    96   49  115 1    
    97   50   51 1    
    98   50   52 1    
    99   50  116 1    
   100   51  117 1    
   101   51  118 1    
   102   51  119 1    
   103   52   53 2    
   104   52   54 am   BACKBONE|DICT|INTERRES
   105   54   55 1    
   106   54  120 1    
   107   55   56 1    
   108   55   57 1    
   109   55  121 1    
   110   56  122 1    
   111   56  123 1    
   112   56  124 1    
   113   57   58 2    
   114   57   59 am   BACKBONE|DICT|INTERRES
   115   59   60 1    
   116   59  125 1    
   117   60   61 1    
   118   60   62 1    
   119   60  126 1    
   120   61  127 1    
   121   61  128 1    
   122   61  129 1    
   123   62   63 2    
   124   62   64 am   BACKBONE|DICT|INTERRES
   125   64   65 1    
   126   64  130 1    
   127   65   66 1    
   128   65   69 1    
   129   65  131 1    
   130   66   67 am   BACKBONE|DICT|INTERRES
   131   66   68 2    
   132   67  132 1    
   133   67  133 1    
   134   69   70 1    
   135   69  134 1    
   136   69  135 1    
   137   70   71 1    
   138   71  136 1    
   139   71  137 1    
@<TRIPOS>SUBSTRUCTURE
     1 UNK         1 GROUP             0       ****    0 ROOT    
