@<TRIPOS>MOLECULE
3R137
137   139    1
SMALL
USER_CHARGES


@<TRIPOS>ATOM
      1 CA         23.6483   -5.1817   -0.8460 C.3       0 UNK        -0.2020 
      2 C          24.8256   -4.2295   -0.7077 C.2       0 UNK         0.4855 
      3 O          24.6432   -3.0860   -0.2899 O.2       0 UNK        -0.5197 
      4 N          26.0371   -4.6855   -1.0517 N.am      1 UNK        -0.4892 
      5 CA         27.2680   -3.8937   -0.9596 C.3       1 UNK         0.0835 
      6 C6         28.5316   -4.7788   -1.0824 C.3       12 UNK        -0.0855 
      7 S7         29.9461   -4.0608   -0.1767 S.3       12 UNK        -0.2931 
      8 C8         31.3376   -4.3689   -1.3099 C.3       12 UNK         0.0378 
      9 C9         31.2503   -3.5159   -2.5660 C.ar      12 UNK        -0.0802 
     10 C10        31.5832   -2.1581   -2.5207 C.ar      12 UNK        -0.0944 
     11 C11        31.5010   -1.3597   -3.6663 C.ar      12 UNK        -0.0787 
     12 C12        31.0830   -1.9476   -4.8672 C.ar      12 UNK        -0.0862 
     13 C13        30.7406   -3.3004   -4.9242 C.ar      12 UNK        -0.0733 
     14 C14        30.8359   -4.0835   -3.7734 C.ar      12 UNK        -0.0832 
     15 C15        30.2383   -3.9059   -6.2253 C.3       12 UNK         0.0240 
     16 S16        28.4224   -3.8335   -6.3315 S.3       12 UNK        -0.2522 
     17 C17        28.1490   -2.0299   -6.3351 C.3       12 UNK        -0.0967 
     18 CA         26.7034   -1.6463   -6.7238 C.3       5 UNK         0.0660 
     19 N          25.7429   -2.1673   -5.7441 N.am      5 UNK        -0.4015 
     20 C          24.4460   -2.4120   -5.9702 C.2       4 UNK         0.4946 
     21 O          23.8969   -2.2299   -7.0578 O.2       4 UNK        -0.5353 
     22 CA         23.6127   -2.8668   -4.7658 C.3       4 UNK         0.0277 
     23 CB         23.8897   -4.3402   -4.4263 C.3       4 UNK        -0.1981 
     24 N          23.8767   -2.0101   -3.6071 N.am      4 UNK        -0.4209 
     25 C          23.3371   -0.7919   -3.4422 C.2       3 UNK         0.4942 
     26 O          22.4614   -0.3292   -4.1735 O.2       3 UNK        -0.5208 
     27 CA         23.8648    0.0700   -2.2818 C.3       3 UNK         0.0250 
     28 CB         22.9860   -0.0990   -1.0322 C.3       3 UNK        -0.1990 
     29 N          25.2629   -0.2208   -1.9529 N.am      3 UNK        -0.4232 
     30 C          26.3062    0.1886   -2.6926 C.2       2 UNK         0.4993 
     31 O          26.1939    0.9183   -3.6762 O.2       2 UNK        -0.5286 
     32 CA         27.7109   -0.2989   -2.2839 C.3       2 UNK         0.0209 
     33 CB         28.4329    0.7837   -1.4661 C.3       2 UNK        -0.1931 
     34 N          27.7144   -1.5508   -1.5208 N.am      2 UNK        -0.4546 
     35 C          27.2567   -2.7263   -1.9699 C.2       1 UNK         0.5154 
     36 O          26.7917   -2.8892   -3.1025 O.2       1 UNK        -0.5181 
     37 C          26.5365   -0.1204   -6.9325 C.2       5 UNK         0.5014 
     38 O          27.5187    0.6256   -6.8981 O.2       5 UNK        -0.5248 
     39 N          25.2916    0.3173   -7.1697 N.am      6 UNK        -0.4434 
     40 CA         24.8566    1.7155   -7.2685 C.3       6 UNK         0.0363 
     41 CB         23.3215    1.7503   -7.3447 C.3       6 UNK        -0.1936 
     42 C          25.4741    2.5158   -8.4315 C.2       6 UNK         0.5081 
     43 O          25.3773    3.7432   -8.4332 O.2       6 UNK        -0.5248 
     44 N          26.1077    1.8236   -9.3885 N.am      7 UNK        -0.4718 
     45 CA         26.8717    2.4073  -10.4936 C.3       7 UNK         0.0273 
     46 CB         27.2283    1.2949  -11.4939 C.3       7 UNK        -0.1935 
     47 C          28.1468    3.1512  -10.0504 C.2       7 UNK         0.5018 
     48 O          28.6725    3.9380  -10.8387 O.2       7 UNK        -0.5186 
     49 N          28.6408    2.8757   -8.8309 N.am      8 UNK        -0.4240 
     50 CA         29.8138    3.4578   -8.1561 C.3       8 UNK         0.0235 
     51 CB         29.6705    4.9810   -7.9744 C.3       8 UNK        -0.2000 
     52 C          31.1682    3.0977   -8.7926 C.2       8 UNK         0.4941 
     53 O          32.0967    2.7481   -8.0664 O.2       8 UNK        -0.5273 
     54 N          31.2580    3.1149  -10.1295 N.am      9 UNK        -0.4262 
     55 CA         32.4063    2.6308  -10.9083 C.3       9 UNK         0.0264 
     56 CB         32.1679    2.9193  -12.3986 C.3       9 UNK        -0.1955 
     57 C          32.6920    1.1329  -10.6852 C.2       9 UNK         0.5031 
     58 O          33.8447    0.7073  -10.7731 O.2       9 UNK        -0.5390 
     59 N          31.6395    0.3790  -10.3378 N.am      10 UNK        -0.4204 
     60 CA         31.6698   -1.0211   -9.9158 C.3       10 UNK         0.0237 
     61 CB         30.2219   -1.5085   -9.7405 C.3       10 UNK        -0.1985 
     62 C          32.4992   -1.2902   -8.6431 C.2       10 UNK         0.4970 
     63 O          32.8909   -2.4386   -8.4346 O.2       10 UNK        -0.4914 
     64 N          32.7737   -0.2572   -7.8306 N.am      11 UNK        -0.4285 
     65 CA         33.7130   -0.3322   -6.6990 C.3       11 UNK         0.1007 
     66 C          35.2072   -0.4590   -7.1238 C.2       11 UNK         0.5703 
     67 N          35.5749   -0.2162   -8.3784 N.am      11 UNK        -0.7361 
     68 O          36.0515   -0.7921   -6.2956 O.2       11 UNK        -0.4986 
     69 C69        33.5373    0.8415   -5.6973 C.3       12 UNK        -0.0947 
     70 S70        31.8307    1.0862   -5.0961 S.3       12 UNK        -0.2240 
     71 C71        31.8289    0.1302   -3.5392 C.3       12 UNK         0.0194 
     72 H72        22.7926   -4.6629   -1.2771 H         1 UNK         0.0906 
     73 H73        23.8870   -6.0328   -1.4834 H         1 UNK         0.0906 
     74 H74        23.3562   -5.5581    0.1338 H         1 UNK         0.0906 
     75 H75        26.1349   -5.6191   -1.4247 H         1 UNK         0.3140 
     76 H76        27.2597   -3.4619    0.0445 H         1 UNK         0.1085 
     77 H77        28.3497   -5.7592   -0.6388 H         1 UNK         0.0836 
     78 H78        28.7793   -4.9704   -2.1270 H         1 UNK         0.0836 
     79 H79        31.3738   -5.4306   -1.5596 H         1 UNK         0.0731 
     80 H80        32.2707   -4.1478   -0.7895 H         1 UNK         0.0731 
     81 H81        31.8931   -1.7186   -1.5821 H         1 UNK         0.1312 
     82 H82        30.9915   -1.3573   -5.7663 H         1 UNK         0.1406 
     83 H83        30.5686   -5.1307   -3.8168 H         1 UNK         0.1631 
     84 H84        30.5575   -4.9464   -6.3006 H         1 UNK         0.0717 
     85 H85        30.6758   -3.3912   -7.0810 H         1 UNK         0.0717 
     86 H86        28.3835   -1.6356   -5.3453 H         1 UNK         0.0934 
     87 H87        28.8668   -1.5846   -7.0232 H         1 UNK         0.0934 
     88 H88        26.4902   -2.1091   -7.6898 H         1 UNK         0.0739 
     89 H89        26.1199   -2.3668   -4.8205 H         1 UNK         0.3093 
     90 H90        22.5584   -2.7815   -5.0390 H         1 UNK         0.0818 
     91 H91        24.9061   -4.4979   -4.0651 H         1 UNK         0.0819 
     92 H92        23.1988   -4.7032   -3.6672 H         1 UNK         0.0819 
     93 H93        23.7565   -4.9727   -5.3050 H         1 UNK         0.0819 
     94 H94        24.6191   -2.3003   -2.9837 H         1 UNK         0.3041 
     95 H95        23.7988    1.1145   -2.5951 H         1 UNK         0.0784 
     96 H96        21.9552    0.1894   -1.2426 H         1 UNK         0.0793 
     97 H97        22.9665   -1.1312   -0.6832 H         1 UNK         0.0793 
     98 H98        23.3357    0.5276   -0.2116 H         1 UNK         0.0793 
     99 H99        25.4300   -0.8275   -1.1611 H         1 UNK         0.3024 
    100 H100       28.2761   -0.4717   -3.2026 H         1 UNK         0.1171 
    101 H101       29.4355    0.4665   -1.1799 H         1 UNK         0.0786 
    102 H102       28.5358    1.7033   -2.0441 H         1 UNK         0.0786 
    103 H103       27.8881    1.0306   -0.5539 H         1 UNK         0.0786 
    104 H104       28.0906   -1.5047   -0.5844 H         1 UNK         0.2977 
    105 H105       24.5620   -0.3889   -7.2147 H         1 UNK         0.3127 
    106 H106       25.1642    2.2121   -6.3457 H         1 UNK         0.0770 
    107 H107       22.9510    1.2402   -8.2347 H         1 UNK         0.0814 
    108 H108       22.9529    2.7765   -7.3785 H         1 UNK         0.0814 
    109 H109       22.8705    1.2759   -6.4727 H         1 UNK         0.0814 
    110 H110       26.1222    0.8178   -9.3051 H         1 UNK         0.2983 
    111 H111       26.2330    3.1359  -10.9977 H         1 UNK         0.0947 
    112 H112       27.7776    1.6963  -12.3470 H         1 UNK         0.0806 
    113 H113       26.3330    0.8136  -11.8879 H         1 UNK         0.0806 
    114 H114       27.8515    0.5243  -11.0384 H         1 UNK         0.0806 
    115 H115       28.1453    2.1797   -8.2818 H         1 UNK         0.3000 
    116 H116       29.8181    3.0124   -7.1592 H         1 UNK         0.0850 
    117 H117       30.4911    5.3782   -7.3754 H         1 UNK         0.0810 
    118 H118       28.7426    5.2319   -7.4603 H         1 UNK         0.0810 
    119 H119       29.6802    5.5113   -8.9270 H         1 UNK         0.0810 
    120 H120       30.4427    3.4451  -10.6426 H         1 UNK         0.3040 
    121 H121       33.2884    3.1859  -10.5828 H         1 UNK         0.0766 
    122 H122       32.0431    3.9870  -12.5805 H         1 UNK         0.0812 
    123 H123       31.2790    2.4094  -12.7724 H         1 UNK         0.0812 
    124 H124       33.0142    2.5858  -13.0010 H         1 UNK         0.0812 
    125 H125       30.7419    0.8372  -10.2995 H         1 UNK         0.3205 
    126 H126       32.1313   -1.5968  -10.7208 H         1 UNK         0.0754 
    127 H127       30.1888   -2.5348   -9.3722 H         1 UNK         0.0769 
    128 H128       29.6834   -1.4924  -10.6884 H         1 UNK         0.0769 
    129 H129       29.6725   -0.8846   -9.0358 H         1 UNK         0.0769 
    130 H130       32.4311    0.6712   -8.0499 H         1 UNK         0.2981 
    131 H131       33.4892   -1.2510   -6.1554 H         1 UNK         0.0541 
    132 H132       34.8993    0.0628   -9.0801 H         1 UNK         0.3459 
    133 H133       36.5460   -0.3083   -8.6300 H         1 UNK         0.3459 
    134 H134       33.8484    1.7766   -6.1665 H         1 UNK         0.0612 
    135 H135       34.1956    0.7103   -4.8370 H         1 UNK         0.0612 
    136 H136       32.7884    0.2536   -3.0353 H         1 UNK         0.0624 
    137 H137       31.0839    0.5824   -2.8854 H         1 UNK         0.0624 
@<TRIPOS>BOND
     1    1    2 1    
     2    1   72 1    
     3    1   73 1    
     4    1   74 1    
     5    2    3 2    
     6    2    4 am   BACKBONE|DICT|INTERRES
     7    4    5 1    
     8    4   75 1    
     9    5    6 1    
    10    5   35 1    
    11    5   76 1    
    12    6    7 1    
    13    6   77 1    
    14    6   78 1    
    15    7    8 1    
    16    8    9 1    
    17    8   79 1    
    18    8   80 1    
    19    9   10 ar   
    20    9   14 ar   
    21   10   11 ar   
    22   10   81 1    
    23   11   12 ar   
    24   11   71 1    
    25   12   13 ar   
    26   12   82 1    
    27   13   14 ar   
    28   13   15 1    
    29   14   83 1    
    30   15   16 1    
    31   15   84 1    
    32   15   85 1    
    33   16   17 1    
    34   17   18 1    
    35   17   86 1    
    36   17   87 1    
    37   18   19 1    
    38   18   37 1    
    39   18   88 1    
    40   19   20 am   BACKBONE|DICT|INTERRES
    41   19   89 1    
    42   20   21 2    
    43   20   22 1    
    44   22   23 1    
    45   22   24 1    
    46   22   90 1    
    47   23   91 1    
    48   23   92 1    
    49   23   93 1    
    50   24   25 am   BACKBONE|DICT|INTERRES
    51   24   94 1    
    52   25   26 2    
    53   25   27 1    
    54   27   28 1    
    55   27   29 1    
    56   27   95 1    
    57   28   96 1    
    58   28   97 1    
    59   28   98 1    
    60   29   30 am   BACKBONE|DICT|INTERRES
    61   29   99 1    
    62   30   31 2    
    63   30   32 1    
    64   32   33 1    
    65   32   34 1    
    66   32  100 1    
    67   33  101 1    
    68   33  102 1    
    69   33  103 1    
    70   34   35 am   BACKBONE|DICT|INTERRES
    71   34  104 1    
    72   35   36 2    
    73   37   38 2    
    74   37   39 am   BACKBONE|DICT|INTERRES
    75   39   40 1    
    76   39  105 1    
    77   40   41 1    
    78   40   42 1    
    79   40  106 1    
    80   41  107 1    
    81   41  108 1    
    82   41  109 1    
    83   42   43 2    
    84   42   44 am   BACKBONE|DICT|INTERRES
    85   44   45 1    
    86   44  110 1    
    87   45   46 1    
    88   45   47 1    
    89   45  111 1    
    90   46  112 1    
    91   46  113 1    
    92   46  114 1    
    93   47   48 2    
    94   47   49 am   BACKBONE|DICT|INTERRES
    95   49   50 1    
    96   49  115 1    
    97   50   51 1    
    98   50   52 1    
    99   50  116 1    
   100   51  117 1    
   101   51  118 1    
   102   51  119 1    
   103   52   53 2    
   104   52   54 am   BACKBONE|DICT|INTERRES
   105   54   55 1    
   106   54  120 1    
   107   55   56 1    
   108   55   57 1    
   109   55  121 1    
   110   56  122 1    
   111   56  123 1    
   112   56  124 1    
   113   57   58 2    
   114   57   59 am   BACKBONE|DICT|INTERRES
   115   59   60 1    
   116   59  125 1    
   117   60   61 1    
   118   60   62 1    
   119   60  126 1    
   120   61  127 1    
   121   61  128 1    
   122   61  129 1    
   123   62   63 2    
   124   62   64 am   BACKBONE|DICT|INTERRES
   125   64   65 1    
   126   64  130 1    
   127   65   66 1    
   128   65   69 1    
   129   65  131 1    
   130   66   67 am   BACKBONE|DICT|INTERRES
   131   66   68 2    
   132   67  132 1    
   133   67  133 1    
   134   69   70 1    
   135   69  134 1    
   136   69  135 1    
   137   70   71 1    
   138   71  136 1    
   139   71  137 1    
@<TRIPOS>SUBSTRUCTURE
     1 UNK         1 GROUP             0       ****    0 ROOT    
