@<TRIPOS>MOLECULE
3R137
137   139    1
SMALL
USER_CHARGES


@<TRIPOS>ATOM
      1 CA         27.3870   -4.7144    4.0788 C.3       0 UNK        -0.2020 
      2 C          27.6146   -3.6230    3.0434 C.2       0 UNK         0.4855 
      3 O          27.8624   -2.4734    3.4098 O.2       0 UNK        -0.5197 
      4 N          27.5431   -3.9747    1.7539 N.am      1 UNK        -0.4892 
      5 CA         27.6872   -3.0503    0.6235 C.3       1 UNK         0.0835 
      6 C6         27.9072   -3.8037   -0.7152 C.3       12 UNK        -0.0855 
      7 S7         29.4022   -4.8485   -0.6842 S.3       12 UNK        -0.2931 
      8 C8         30.6189   -3.7606   -1.5050 C.3       12 UNK         0.0378 
      9 C9         30.7208   -3.8912   -3.0277 C.ar      12 UNK        -0.0802 
     10 C10        31.8364   -3.3229   -3.6545 C.ar      12 UNK        -0.0944 
     11 C11        32.0177   -3.4318   -5.0352 C.ar      12 UNK        -0.0787 
     12 C12        31.0790   -4.1312   -5.7934 C.ar      12 UNK        -0.0862 
     13 C13        29.9275   -4.6537   -5.2000 C.ar      12 UNK        -0.0733 
     14 C14        29.7560   -4.5409   -3.8155 C.ar      12 UNK        -0.0832 
     15 C15        28.8646   -5.3072   -6.0782 C.3       12 UNK         0.0240 
     16 S16        27.5202   -4.1599   -6.5580 S.3       12 UNK        -0.2522 
     17 C17        28.4089   -2.5844   -6.8108 C.3       12 UNK        -0.0967 
     18 CA         27.6760   -1.5092   -7.6486 C.3       5 UNK         0.0660 
     19 N          26.2502   -1.4061   -7.3202 N.am      5 UNK        -0.4015 
     20 C          25.3778   -0.4751   -7.7394 C.2       4 UNK         0.4946 
     21 O          25.6452    0.3968   -8.5685 O.2       4 UNK        -0.5353 
     22 CA         23.9924   -0.4630   -7.0663 C.3       4 UNK         0.0277 
     23 CB         22.9485   -1.1061   -7.9928 C.3       4 UNK        -0.1981 
     24 N          23.9428   -1.1134   -5.7477 N.am      4 UNK        -0.4209 
     25 C          24.7141   -0.8113   -4.6919 C.2       3 UNK         0.4942 
     26 O          25.5841    0.0654   -4.7031 O.2       3 UNK        -0.5208 
     27 CA         24.5334   -1.7055   -3.4573 C.3       3 UNK         0.0250 
     28 CB         25.0982   -3.1134   -3.7230 C.3       3 UNK        -0.1990 
     29 N          25.2367   -1.1499   -2.3060 N.am      3 UNK        -0.4232 
     30 C          24.7273   -0.2958   -1.4109 C.2       2 UNK         0.4993 
     31 O          23.5706    0.1288   -1.4491 O.2       2 UNK        -0.5286 
     32 CA         25.6818    0.1411   -0.2772 C.3       2 UNK         0.0209 
     33 CB         24.9327    0.6133    0.9881 C.3       2 UNK        -0.1931 
     34 N          26.6912   -0.8811    0.0560 N.am      2 UNK        -0.4546 
     35 C          26.4592   -2.1240    0.5110 C.2       1 UNK         0.5154 
     36 O          25.3377   -2.5669    0.7742 O.2       1 UNK        -0.5181 
     37 C          28.4417   -0.1818   -7.4719 C.2       5 UNK         0.5014 
     38 O          29.3783    0.0784   -8.2287 O.2       5 UNK        -0.5248 
     39 N          28.0228    0.6385   -6.4939 N.am      6 UNK        -0.4434 
     40 CA         28.5745    1.9645   -6.2168 C.3       6 UNK         0.0363 
     41 CB         27.8345    2.5911   -5.0260 C.3       6 UNK        -0.1936 
     42 C          28.5508    2.9106   -7.4301 C.2       6 UNK         0.5081 
     43 O          29.4792    3.7045   -7.5853 O.2       6 UNK        -0.5248 
     44 N          27.5222    2.7724   -8.2772 N.am      7 UNK        -0.4718 
     45 CA         27.3996    3.4612   -9.5582 C.3       7 UNK         0.0273 
     46 CB         25.9648    3.9916   -9.7148 C.3       7 UNK        -0.1935 
     47 C          27.7590    2.5245  -10.7206 C.2       7 UNK         0.5018 
     48 O          28.5404    2.9180  -11.5856 O.2       7 UNK        -0.5186 
     49 N          27.1912    1.3083  -10.7266 N.am      8 UNK        -0.4240 
     50 CA         27.2644    0.3544  -11.8396 C.3       8 UNK         0.0235 
     51 CB         26.2680   -0.7919  -11.6010 C.3       8 UNK        -0.2000 
     52 C          28.6704   -0.2017  -12.1182 C.2       8 UNK         0.4941 
     53 O          29.0071   -0.4139  -13.2837 O.2       8 UNK        -0.5273 
     54 N          29.4620   -0.4168  -11.0605 N.am      9 UNK        -0.4262 
     55 CA         30.8593   -0.8549  -11.1310 C.3       9 UNK         0.0264 
     56 CB         31.0250   -2.1211  -10.2709 C.3       9 UNK        -0.1955 
     57 C          31.8246    0.2586  -10.6816 C.2       9 UNK         0.5031 
     58 O          33.0308    0.0163  -10.6232 O.2       9 UNK        -0.5390 
     59 N          31.2836    1.4491  -10.3744 N.am      10 UNK        -0.4204 
     60 CA         31.9610    2.6455   -9.8636 C.3       10 UNK         0.0237 
     61 CB         32.8952    3.2441  -10.9371 C.3       10 UNK        -0.1985 
     62 C          32.6639    2.4270   -8.5071 C.2       10 UNK         0.4970 
     63 O          33.6892    3.0599   -8.2466 O.2       10 UNK        -0.4914 
     64 N          32.1077    1.5450   -7.6643 N.am      11 UNK        -0.4285 
     65 CA         32.6463    1.2161   -6.3326 C.3       11 UNK         0.1007 
     66 C          32.4570    2.3250   -5.2540 C.2       11 UNK         0.5703 
     67 N          31.7192    3.4002   -5.5087 N.am      11 UNK        -0.7361 
     68 O          33.0089    2.2139   -4.1620 O.2       11 UNK        -0.4986 
     69 C69        32.1424   -0.1660   -5.8367 C.3       12 UNK        -0.0947 
     70 S70        32.7123   -1.5183   -6.9210 S.3       12 UNK        -0.2240 
     71 C71        33.2185   -2.7927   -5.7191 C.3       12 UNK         0.0194 
     72 H72        26.5352   -4.4611    4.7094 H         1 UNK         0.0906 
     73 H73        27.1904   -5.6814    3.6160 H         1 UNK         0.0906 
     74 H74        28.2649   -4.8162    4.7162 H         1 UNK         0.0906 
     75 H75        27.3301   -4.9308    1.5075 H         1 UNK         0.3140 
     76 H76        28.5641   -2.4279    0.8171 H         1 UNK         0.1085 
     77 H77        27.0514   -4.4445   -0.9384 H         1 UNK         0.0836 
     78 H78        27.9824   -3.1052   -1.5511 H         1 UNK         0.0836 
     79 H79        30.4153   -2.7207   -1.2460 H         1 UNK         0.0731 
     80 H80        31.5944   -3.9924   -1.0744 H         1 UNK         0.0731 
     81 H81        32.5718   -2.7957   -3.0617 H         1 UNK         0.1312 
     82 H82        31.2217   -4.2189   -6.8621 H         1 UNK         0.1406 
     83 H83        28.8664   -4.9574   -3.3650 H         1 UNK         0.1631 
     84 H84        28.4309   -6.1637   -5.5601 H         1 UNK         0.0717 
     85 H85        29.3230   -5.7049   -6.9851 H         1 UNK         0.0717 
     86 H86        29.3591   -2.7982   -7.3009 H         1 UNK         0.0934 
     87 H87        28.6549   -2.2065   -5.8150 H         1 UNK         0.0934 
     88 H88        27.7371   -1.7908   -8.7008 H         1 UNK         0.0739 
     89 H89        25.9197   -2.0900   -6.6558 H         1 UNK         0.3093 
     90 H90        23.7225    0.5847   -6.9195 H         1 UNK         0.0818 
     91 H91        21.9414   -1.0075   -7.5873 H         1 UNK         0.0819 
     92 H92        22.9478   -0.6260   -8.9728 H         1 UNK         0.0819 
     93 H93        23.1466   -2.1671   -8.1507 H         1 UNK         0.0819 
     94 H94        23.2648   -1.8556   -5.6459 H         1 UNK         0.3041 
     95 H95        23.4669   -1.7835   -3.2343 H         1 UNK         0.0784 
     96 H96        24.5858   -3.6023   -4.5523 H         1 UNK         0.0793 
     97 H97        26.1611   -3.0844   -3.9677 H         1 UNK         0.0793 
     98 H98        24.9768   -3.7569   -2.8511 H         1 UNK         0.0793 
     99 H99        26.2143   -1.3828   -2.2287 H         1 UNK         0.3024 
    100 H100       26.2297    0.9993   -0.6705 H         1 UNK         0.1171 
    101 H101       25.6277    0.9226    1.7686 H         1 UNK         0.0786 
    102 H102       24.2941   -0.1696    1.3983 H         1 UNK         0.0786 
    103 H103       24.2937    1.4694    0.7679 H         1 UNK         0.0786 
    104 H104       27.6489   -0.6115   -0.1255 H         1 UNK         0.2977 
    105 H105       27.2336    0.3538   -5.9207 H         1 UNK         0.3127 
    106 H106       29.6138    1.8152   -5.9313 H         1 UNK         0.0770 
    107 H107       26.7732    2.7278   -5.2381 H         1 UNK         0.0814 
    108 H108       28.2494    3.5693   -4.7793 H         1 UNK         0.0814 
    109 H109       27.9189    1.9692   -4.1346 H         1 UNK         0.0814 
    110 H110       26.8340    2.0529   -8.0843 H         1 UNK         0.2983 
    111 H111       28.0801    4.3151   -9.5958 H         1 UNK         0.0947 
    112 H112       25.8383    4.4996  -10.6720 H         1 UNK         0.0806 
    113 H113       25.7241    4.7115   -8.9325 H         1 UNK         0.0806 
    114 H114       25.2260    3.1902   -9.6689 H         1 UNK         0.0806 
    115 H115       26.5754    1.0499   -9.9564 H         1 UNK         0.3000 
    116 H116       26.9488    0.8876  -12.7391 H         1 UNK         0.0850 
    117 H117       26.2641   -1.4875  -12.4413 H         1 UNK         0.0810 
    118 H118       25.2508   -0.4161  -11.4875 H         1 UNK         0.0810 
    119 H119       26.5133   -1.3636  -10.7064 H         1 UNK         0.0810 
    120 H120       29.1215   -0.2078  -10.1262 H         1 UNK         0.3040 
    121 H121       31.1315   -1.1076  -12.1576 H         1 UNK         0.0766 
    122 H122       32.0475   -2.4977  -10.3179 H         1 UNK         0.0812 
    123 H123       30.7992   -1.9296   -9.2224 H         1 UNK         0.0812 
    124 H124       30.3692   -2.9214  -10.6136 H         1 UNK         0.0812 
    125 H125       30.2843    1.5402  -10.4924 H         1 UNK         0.3205 
    126 H126       31.1733    3.3764   -9.6765 H         1 UNK         0.0754 
    127 H127       33.2887    4.2107  -10.6202 H         1 UNK         0.0769 
    128 H128       32.3663    3.4048  -11.8767 H         1 UNK         0.0769 
    129 H129       33.7484    2.5955  -11.1383 H         1 UNK         0.0769 
    130 H130       31.2680    1.0516   -7.9446 H         1 UNK         0.2981 
    131 H131       33.7289    1.1301   -6.4453 H         1 UNK         0.0541 
    132 H132       31.2377    3.5094   -6.3920 H         1 UNK         0.3459 
    133 H133       31.6284    4.1084   -4.7983 H         1 UNK         0.3459 
    134 H134       31.0532   -0.1916   -5.7888 H         1 UNK         0.0612 
    135 H135       32.4967   -0.3637   -4.8236 H         1 UNK         0.0612 
    136 H136       33.7785   -3.5668   -6.2453 H         1 UNK         0.0624 
    137 H137       33.9048   -2.3558   -4.9921 H         1 UNK         0.0624 
@<TRIPOS>BOND
     1    1    2 1    
     2    1   72 1    
     3    1   73 1    
     4    1   74 1    
     5    2    3 2    
     6    2    4 am   BACKBONE|DICT|INTERRES
     7    4    5 1    
     8    4   75 1    
     9    5    6 1    
    10    5   35 1    
    11    5   76 1    
    12    6    7 1    
    13    6   77 1    
    14    6   78 1    
    15    7    8 1    
    16    8    9 1    
    17    8   79 1    
    18    8   80 1    
    19    9   10 ar   
    20    9   14 ar   
    21   10   11 ar   
    22   10   81 1    
    23   11   12 ar   
    24   11   71 1    
    25   12   13 ar   
    26   12   82 1    
    27   13   14 ar   
    28   13   15 1    
    29   14   83 1    
    30   15   16 1    
    31   15   84 1    
    32   15   85 1    
    33   16   17 1    
    34   17   18 1    
    35   17   86 1    
    36   17   87 1    
    37   18   19 1    
    38   18   37 1    
    39   18   88 1    
    40   19   20 am   BACKBONE|DICT|INTERRES
    41   19   89 1    
    42   20   21 2    
    43   20   22 1    
    44   22   23 1    
    45   22   24 1    
    46   22   90 1    
    47   23   91 1    
    48   23   92 1    
    49   23   93 1    
    50   24   25 am   BACKBONE|DICT|INTERRES
    51   24   94 1    
    52   25   26 2    
    53   25   27 1    
    54   27   28 1    
    55   27   29 1    
    56   27   95 1    
    57   28   96 1    
    58   28   97 1    
    59   28   98 1    
    60   29   30 am   BACKBONE|DICT|INTERRES
    61   29   99 1    
    62   30   31 2    
    63   30   32 1    
    64   32   33 1    
    65   32   34 1    
    66   32  100 1    
    67   33  101 1    
    68   33  102 1    
    69   33  103 1    
    70   34   35 am   BACKBONE|DICT|INTERRES
    71   34  104 1    
    72   35   36 2    
    73   37   38 2    
    74   37   39 am   BACKBONE|DICT|INTERRES
    75   39   40 1    
    76   39  105 1    
    77   40   41 1    
    78   40   42 1    
    79   40  106 1    
    80   41  107 1    
    81   41  108 1    
    82   41  109 1    
    83   42   43 2    
    84   42   44 am   BACKBONE|DICT|INTERRES
    85   44   45 1    
    86   44  110 1    
    87   45   46 1    
    88   45   47 1    
    89   45  111 1    
    90   46  112 1    
    91   46  113 1    
    92   46  114 1    
    93   47   48 2    
    94   47   49 am   BACKBONE|DICT|INTERRES
    95   49   50 1    
    96   49  115 1    
    97   50   51 1    
    98   50   52 1    
    99   50  116 1    
   100   51  117 1    
   101   51  118 1    
   102   51  119 1    
   103   52   53 2    
   104   52   54 am   BACKBONE|DICT|INTERRES
   105   54   55 1    
   106   54  120 1    
   107   55   56 1    
   108   55   57 1    
   109   55  121 1    
   110   56  122 1    
   111   56  123 1    
   112   56  124 1    
   113   57   58 2    
   114   57   59 am   BACKBONE|DICT|INTERRES
   115   59   60 1    
   116   59  125 1    
   117   60   61 1    
   118   60   62 1    
   119   60  126 1    
   120   61  127 1    
   121   61  128 1    
   122   61  129 1    
   123   62   63 2    
   124   62   64 am   BACKBONE|DICT|INTERRES
   125   64   65 1    
   126   64  130 1    
   127   65   66 1    
   128   65   69 1    
   129   65  131 1    
   130   66   67 am   BACKBONE|DICT|INTERRES
   131   66   68 2    
   132   67  132 1    
   133   67  133 1    
   134   69   70 1    
   135   69  134 1    
   136   69  135 1    
   137   70   71 1    
   138   71  136 1    
   139   71  137 1    
@<TRIPOS>SUBSTRUCTURE
     1 UNK         1 GROUP             0       ****    0 ROOT    
