@<TRIPOS>MOLECULE
3R137
137   139    1
SMALL
USER_CHARGES


@<TRIPOS>ATOM
      1 CA         26.7744   -2.9368    2.9047 C.3       0 UNK        -0.2020 
      2 C          26.9796   -3.2507    1.4303 C.2       0 UNK         0.4855 
      3 O          26.6295   -4.3449    0.9881 O.2       0 UNK        -0.5197 
      4 N          27.5356   -2.2930    0.6726 N.am      1 UNK        -0.4892 
      5 CA         27.8581   -2.3824   -0.7640 C.3       1 UNK         0.0835 
      6 C6         28.9428   -3.4497   -1.0841 C.3       12 UNK        -0.0855 
      7 S7         30.5133   -3.0795   -0.2249 S.3       12 UNK        -0.2931 
      8 C8         31.7462   -3.2074   -1.5638 C.3       12 UNK         0.0378 
      9 C9         31.4678   -2.2810   -2.7428 C.ar      12 UNK        -0.0802 
     10 C10        31.4058   -2.8067   -4.0374 C.ar      12 UNK        -0.0944 
     11 C11        31.1827   -1.9721   -5.1374 C.ar      12 UNK        -0.0787 
     12 C12        30.9872   -0.6053   -4.9280 C.ar      12 UNK        -0.0862 
     13 C13        31.0185   -0.0687   -3.6374 C.ar      12 UNK        -0.0733 
     14 C14        31.2840   -0.9073   -2.5503 C.ar      12 UNK        -0.0832 
     15 C15        30.7505    1.4159   -3.4250 C.3       12 UNK         0.0240 
     16 S16        29.2216    1.7494   -2.4788 S.3       12 UNK        -0.2522 
     17 C17        27.9925    0.5938   -3.1806 C.3       12 UNK        -0.0967 
     18 CA         27.6958    0.7736   -4.6855 C.3       5 UNK         0.0660 
     19 N          27.0644   -0.4230   -5.2394 N.am      5 UNK        -0.4015 
     20 C          27.1256   -0.7838   -6.5268 C.2       4 UNK         0.4946 
     21 O          27.7734   -0.1730   -7.3765 O.2       4 UNK        -0.5353 
     22 CA         26.3038   -2.0154   -6.9451 C.3       4 UNK         0.0277 
     23 CB         27.1395   -3.2972   -6.8151 C.3       4 UNK        -0.1981 
     24 N          25.0632   -2.1614   -6.1781 N.am      4 UNK        -0.4209 
     25 C          24.0255   -1.3183   -6.2703 C.2       3 UNK         0.4942 
     26 O          24.0028   -0.3464   -7.0220 O.2       3 UNK        -0.5208 
     27 CA         22.8265   -1.5666   -5.3425 C.3       3 UNK         0.0250 
     28 CB         21.8365   -2.5431   -5.9971 C.3       3 UNK        -0.1990 
     29 N          23.1779   -2.0501   -4.0043 N.am      3 UNK        -0.4232 
     30 C          24.0094   -1.4521   -3.1385 C.2       2 UNK         0.4993 
     31 O          24.6579   -0.4356   -3.4034 O.2       2 UNK        -0.5286 
     32 CA         24.1152   -2.0790   -1.7332 C.3       2 UNK         0.0209 
     33 CB         23.5999   -3.5355   -1.6523 C.3       2 UNK        -0.1931 
     34 N          25.4631   -1.9947   -1.1603 N.am      2 UNK        -0.4546 
     35 C          26.5984   -2.5097   -1.6583 C.2       1 UNK         0.5154 
     36 O          26.6737   -3.0535   -2.7627 O.2       1 UNK        -0.5181 
     37 C          26.8593    2.0270   -4.9936 C.2       5 UNK         0.5014 
     38 O          27.4335    3.0528   -5.3585 O.2       5 UNK        -0.5248 
     39 N          25.5242    1.9127   -4.9118 N.am      6 UNK        -0.4434 
     40 CA         24.5763    2.9635   -5.3002 C.3       6 UNK         0.0363 
     41 CB         23.1486    2.5411   -4.9212 C.3       6 UNK        -0.1936 
     42 C          24.6609    3.3266   -6.7954 C.2       6 UNK         0.5081 
     43 O          24.6235    4.5092   -7.1352 O.2       6 UNK        -0.5248 
     44 N          24.8105    2.3099   -7.6561 N.am      7 UNK        -0.4718 
     45 CA         25.0430    2.4547   -9.0971 C.3       7 UNK         0.0273 
     46 CB         24.7065    1.1246   -9.7917 C.3       7 UNK        -0.1935 
     47 C          26.4795    2.8842   -9.4520 C.2       7 UNK         0.5018 
     48 O          26.7108    3.2842  -10.5937 O.2       7 UNK        -0.5186 
     49 N          27.4058    2.7816   -8.4867 N.am      8 UNK        -0.4240 
     50 CA         28.8433    3.0529   -8.5828 C.3       8 UNK         0.0235 
     51 CB         29.1049    4.5581   -8.8041 C.3       8 UNK        -0.2000 
     52 C          29.5400    2.1525   -9.6203 C.2       8 UNK         0.4941 
     53 O          30.2137    2.6529  -10.5245 O.2       8 UNK        -0.5273 
     54 N          29.3493    0.8335   -9.4753 N.am      9 UNK        -0.4262 
     55 CA         29.9866   -0.2013  -10.2926 C.3       9 UNK         0.0264 
     56 CB         29.3475   -1.5618   -9.9693 C.3       9 UNK        -0.1955 
     57 C          31.5128   -0.2466  -10.0903 C.2       9 UNK         0.5031 
     58 O          32.0131    0.1376   -9.0286 O.2       9 UNK        -0.5390 
     59 N          32.2258   -0.7300  -11.1149 N.am      10 UNK        -0.4204 
     60 CA         33.6889   -0.7507  -11.2110 C.3       10 UNK         0.0237 
     61 CB         34.0824   -0.8772  -12.6958 C.3       10 UNK        -0.1985 
     62 C          34.3639   -1.8209  -10.3262 C.2       10 UNK         0.4970 
     63 O          35.1165   -2.6539  -10.8355 O.2       10 UNK        -0.4914 
     64 N          34.1050   -1.7675   -9.0154 N.am      11 UNK        -0.4285 
     65 CA         34.7969   -2.5677   -7.9908 C.3       11 UNK         0.1007 
     66 C          36.2362   -2.0705   -7.6627 C.2       11 UNK         0.5703 
     67 N          36.6486   -0.8814   -8.0878 N.am      11 UNK        -0.7361 
     68 O          36.9995   -2.7859   -7.0179 O.2       11 UNK        -0.4986 
     69 C69        33.9525   -2.7031   -6.6983 C.3       12 UNK        -0.0947 
     70 S70        32.4532   -3.7100   -6.9497 S.3       12 UNK        -0.2240 
     71 C71        31.1235   -2.5280   -6.5565 C.3       12 UNK         0.0194 
     72 H72        27.3196   -3.6529    3.5189 H         1 UNK         0.0906 
     73 H73        27.1216   -1.9365    3.1629 H         1 UNK         0.0906 
     74 H74        25.7171   -3.0051    3.1594 H         1 UNK         0.0906 
     75 H75        27.8049   -1.4235    1.1131 H         1 UNK         0.3140 
     76 H76        28.2857   -1.4125   -1.0164 H         1 UNK         0.1085 
     77 H77        29.1278   -3.4999   -2.1580 H         1 UNK         0.0836 
     78 H78        28.6082   -4.4470   -0.7955 H         1 UNK         0.0836 
     79 H79        31.7922   -4.2475   -1.8907 H         1 UNK         0.0731 
     80 H80        32.7307   -2.9709   -1.1580 H         1 UNK         0.0731 
     81 H81        31.5444   -3.8677   -4.1937 H         1 UNK         0.1312 
     82 H82        30.7980    0.0397   -5.7756 H         1 UNK         0.1406 
     83 H83        31.3201   -0.4946   -1.5510 H         1 UNK         0.1631 
     84 H84        30.6887    1.9385   -4.3808 H         1 UNK         0.0717 
     85 H85        31.5945    1.8589   -2.8947 H         1 UNK         0.0717 
     86 H86        28.3776   -0.4124   -3.0207 H         1 UNK         0.0934 
     87 H87        27.0755    0.6572   -2.5914 H         1 UNK         0.0934 
     88 H88        28.6453    0.9043   -5.2042 H         1 UNK         0.0739 
     89 H89        26.4652   -0.9472   -4.6139 H         1 UNK         0.3093 
     90 H90        26.0349   -1.8892   -7.9963 H         1 UNK         0.0818 
     91 H91        26.5632   -4.1789   -7.0960 H         1 UNK         0.0819 
     92 H92        28.0046   -3.2602   -7.4765 H         1 UNK         0.0819 
     93 H93        27.5050   -3.4435   -5.7972 H         1 UNK         0.0819 
     94 H94        25.0118   -2.9258   -5.5194 H         1 UNK         0.3041 
     95 H95        22.3166   -0.6111   -5.2103 H         1 UNK         0.0784 
     96 H96        21.5427   -2.1947   -6.9885 H         1 UNK         0.0793 
     97 H97        22.2675   -3.5381   -6.1160 H         1 UNK         0.0793 
     98 H98        20.9242   -2.6396   -5.4080 H         1 UNK         0.0793 
     99 H99        22.7012   -2.8844   -3.6938 H         1 UNK         0.3024 
    100 H100       23.4765   -1.4676   -1.0937 H         1 UNK         0.1171 
    101 H101       23.7307   -3.9398   -0.6480 H         1 UNK         0.0786 
    102 H102       22.5347   -3.6006   -1.8775 H         1 UNK         0.0786 
    103 H103       24.1312   -4.1950   -2.3401 H         1 UNK         0.0786 
    104 H104       25.5256   -1.5355   -0.2626 H         1 UNK         0.2977 
    105 H105       25.1321    1.0465   -4.5499 H         1 UNK         0.3127 
    106 H106       24.8289    3.8583   -4.7273 H         1 UNK         0.0770 
    107 H107       22.8183    1.6775   -5.4975 H         1 UNK         0.0814 
    108 H108       22.4415    3.3487   -5.1147 H         1 UNK         0.0814 
    109 H109       23.0737    2.2892   -3.8631 H         1 UNK         0.0814 
    110 H110       24.7319    1.3566   -7.3067 H         1 UNK         0.2983 
    111 H111       24.3688    3.2236   -9.4805 H         1 UNK         0.0947 
    112 H112       25.3561    0.3180   -9.4485 H         1 UNK         0.0806 
    113 H113       24.8270    1.2039  -10.8730 H         1 UNK         0.0806 
    114 H114       23.6750    0.8273   -9.6019 H         1 UNK         0.0806 
    115 H115       27.0939    2.4425   -7.5865 H         1 UNK         0.3000 
    116 H116       29.2684    2.7860   -7.6138 H         1 UNK         0.0850 
    117 H117       28.6306    5.1589   -8.0280 H         1 UNK         0.0810 
    118 H118       28.7300    4.8992   -9.7695 H         1 UNK         0.0810 
    119 H119       30.1733    4.7754   -8.7753 H         1 UNK         0.0810 
    120 H120       28.7789    0.5052   -8.6956 H         1 UNK         0.3040 
    121 H121       29.7867    0.0368  -11.3395 H         1 UNK         0.0766 
    122 H122       29.7874   -2.3606  -10.5676 H         1 UNK         0.0812 
    123 H123       28.2771   -1.5539  -10.1759 H         1 UNK         0.0812 
    124 H124       29.4783   -1.8283   -8.9215 H         1 UNK         0.0812 
    125 H125       31.7270   -1.0690  -11.9252 H         1 UNK         0.3205 
    126 H126       34.0590    0.2154  -10.8608 H         1 UNK         0.0754 
    127 H127       35.1655   -0.8353  -12.8201 H         1 UNK         0.0769 
    128 H128       33.6622   -0.0647  -13.2892 H         1 UNK         0.0769 
    129 H129       33.7405   -1.8196  -13.1258 H         1 UNK         0.0769 
    130 H130       33.4441   -1.0667   -8.6906 H         1 UNK         0.2981 
    131 H131       34.9293   -3.5732   -8.3952 H         1 UNK         0.0541 
    132 H132       37.5851   -0.5786   -7.8711 H         1 UNK         0.3459 
    133 H133       36.0318   -0.2805   -8.6095 H         1 UNK         0.3459 
    134 H134       34.5240   -3.1929   -5.9077 H         1 UNK         0.0612 
    135 H135       33.6896   -1.7166   -6.3130 H         1 UNK         0.0612 
    136 H136       31.1618   -1.7183   -7.2848 H         1 UNK         0.0624 
    137 H137       30.1662   -3.0283   -6.6921 H         1 UNK         0.0624 
@<TRIPOS>BOND
     1    1    2 1    
     2    1   72 1    
     3    1   73 1    
     4    1   74 1    
     5    2    3 2    
     6    2    4 am   BACKBONE|DICT|INTERRES
     7    4    5 1    
     8    4   75 1    
     9    5    6 1    
    10    5   35 1    
    11    5   76 1    
    12    6    7 1    
    13    6   77 1    
    14    6   78 1    
    15    7    8 1    
    16    8    9 1    
    17    8   79 1    
    18    8   80 1    
    19    9   10 ar   
    20    9   14 ar   
    21   10   11 ar   
    22   10   81 1    
    23   11   12 ar   
    24   11   71 1    
    25   12   13 ar   
    26   12   82 1    
    27   13   14 ar   
    28   13   15 1    
    29   14   83 1    
    30   15   16 1    
    31   15   84 1    
    32   15   85 1    
    33   16   17 1    
    34   17   18 1    
    35   17   86 1    
    36   17   87 1    
    37   18   19 1    
    38   18   37 1    
    39   18   88 1    
    40   19   20 am   BACKBONE|DICT|INTERRES
    41   19   89 1    
    42   20   21 2    
    43   20   22 1    
    44   22   23 1    
    45   22   24 1    
    46   22   90 1    
    47   23   91 1    
    48   23   92 1    
    49   23   93 1    
    50   24   25 am   BACKBONE|DICT|INTERRES
    51   24   94 1    
    52   25   26 2    
    53   25   27 1    
    54   27   28 1    
    55   27   29 1    
    56   27   95 1    
    57   28   96 1    
    58   28   97 1    
    59   28   98 1    
    60   29   30 am   BACKBONE|DICT|INTERRES
    61   29   99 1    
    62   30   31 2    
    63   30   32 1    
    64   32   33 1    
    65   32   34 1    
    66   32  100 1    
    67   33  101 1    
    68   33  102 1    
    69   33  103 1    
    70   34   35 am   BACKBONE|DICT|INTERRES
    71   34  104 1    
    72   35   36 2    
    73   37   38 2    
    74   37   39 am   BACKBONE|DICT|INTERRES
    75   39   40 1    
    76   39  105 1    
    77   40   41 1    
    78   40   42 1    
    79   40  106 1    
    80   41  107 1    
    81   41  108 1    
    82   41  109 1    
    83   42   43 2    
    84   42   44 am   BACKBONE|DICT|INTERRES
    85   44   45 1    
    86   44  110 1    
    87   45   46 1    
    88   45   47 1    
    89   45  111 1    
    90   46  112 1    
    91   46  113 1    
    92   46  114 1    
    93   47   48 2    
    94   47   49 am   BACKBONE|DICT|INTERRES
    95   49   50 1    
    96   49  115 1    
    97   50   51 1    
    98   50   52 1    
    99   50  116 1    
   100   51  117 1    
   101   51  118 1    
   102   51  119 1    
   103   52   53 2    
   104   52   54 am   BACKBONE|DICT|INTERRES
   105   54   55 1    
   106   54  120 1    
   107   55   56 1    
   108   55   57 1    
   109   55  121 1    
   110   56  122 1    
   111   56  123 1    
   112   56  124 1    
   113   57   58 2    
   114   57   59 am   BACKBONE|DICT|INTERRES
   115   59   60 1    
   116   59  125 1    
   117   60   61 1    
   118   60   62 1    
   119   60  126 1    
   120   61  127 1    
   121   61  128 1    
   122   61  129 1    
   123   62   63 2    
   124   62   64 am   BACKBONE|DICT|INTERRES
   125   64   65 1    
   126   64  130 1    
   127   65   66 1    
   128   65   69 1    
   129   65  131 1    
   130   66   67 am   BACKBONE|DICT|INTERRES
   131   66   68 2    
   132   67  132 1    
   133   67  133 1    
   134   69   70 1    
   135   69  134 1    
   136   69  135 1    
   137   70   71 1    
   138   71  136 1    
   139   71  137 1    
@<TRIPOS>SUBSTRUCTURE
     1 UNK         1 GROUP             0       ****    0 ROOT    
