@<TRIPOS>MOLECULE
3R137
137   139    1
SMALL
USER_CHARGES


@<TRIPOS>ATOM
      1 CA         28.2745   -0.8894    2.2070 C.3       0 UNK        -0.2020 
      2 C          27.6405   -2.0188    1.4087 C.2       0 UNK         0.4855 
      3 O          27.0265   -2.9111    1.9946 O.2       0 UNK        -0.5197 
      4 N          27.7952   -1.9836    0.0786 N.am      1 UNK        -0.4892 
      5 CA         27.2209   -2.9194   -0.8955 C.3       1 UNK         0.0835 
      6 C6         27.6788   -4.3899   -0.6683 C.3       12 UNK        -0.0855 
      7 S7         27.8669   -5.3355   -2.2208 S.3       12 UNK        -0.2931 
      8 C8         29.6753   -5.3191   -2.4670 C.3       12 UNK         0.0378 
      9 C9         30.1302   -4.0644   -3.1992 C.ar      12 UNK        -0.0802 
     10 C10        30.3554   -4.0993   -4.5782 C.ar      12 UNK        -0.0944 
     11 C11        30.7486   -2.9511   -5.2731 C.ar      12 UNK        -0.0787 
     12 C12        30.8962   -1.7491   -4.5645 C.ar      12 UNK        -0.0862 
     13 C13        30.6759   -1.6999   -3.1853 C.ar      12 UNK        -0.0733 
     14 C14        30.3192   -2.8673   -2.5050 C.ar      12 UNK        -0.0832 
     15 C15        30.8111   -0.3898   -2.4220 C.3       12 UNK         0.0240 
     16 S16        29.1770    0.2461   -1.9279 S.3       12 UNK        -0.2522 
     17 C17        28.9148    1.6580   -3.0549 C.3       12 UNK        -0.0967 
     18 CA         28.7388    1.2936   -4.5521 C.3       5 UNK         0.0660 
     19 N          27.8230    0.1661   -4.7591 N.am      5 UNK        -0.4015 
     20 C          27.5981   -0.4422   -5.9316 C.2       4 UNK         0.4946 
     21 O          28.1444   -0.1172   -6.9868 O.2       4 UNK        -0.5353 
     22 CA         26.5271   -1.5467   -5.9542 C.3       4 UNK         0.0277 
     23 CB         27.1537   -2.9118   -5.6393 C.3       4 UNK        -0.1981 
     24 N          25.3870   -1.3412   -5.0543 N.am      4 UNK        -0.4209 
     25 C          24.6349   -0.2416   -4.9087 C.2       3 UNK         0.4942 
     26 O          24.8691    0.8217   -5.4842 O.2       3 UNK        -0.5208 
     27 CA         23.4389   -0.3113   -3.9386 C.3       3 UNK         0.0250 
     28 CB         22.1049   -0.2672   -4.7093 C.3       3 UNK        -0.1990 
     29 N          23.4767   -1.4303   -2.9804 N.am      3 UNK        -0.4232 
     30 C          23.3599   -2.7468   -3.2094 C.2       2 UNK         0.4993 
     31 O          23.1869   -3.2360   -4.3258 O.2       2 UNK        -0.5286 
     32 CA         23.5926   -3.6673   -1.9973 C.3       2 UNK         0.0209 
     33 CB         23.0981   -5.1045   -2.2455 C.3       2 UNK        -0.1931 
     34 N          25.0179   -3.7100   -1.6588 N.am      2 UNK        -0.4546 
     35 C          25.6917   -2.7377   -1.0315 C.2       1 UNK         0.5154 
     36 O          25.1490   -1.7052   -0.6251 O.2       1 UNK        -0.5181 
     37 C          28.3542    2.5571   -5.3577 C.2       5 UNK         0.5014 
     38 O          29.2271    3.3903   -5.6024 O.2       5 UNK        -0.5248 
     39 N          27.0771    2.6834   -5.7465 N.am      6 UNK        -0.4434 
     40 CA         26.5641    3.7416   -6.6156 C.3       6 UNK         0.0363 
     41 CB         25.3952    4.4510   -5.9125 C.3       6 UNK        -0.1936 
     42 C          26.1077    3.1769   -7.9699 C.2       6 UNK         0.5081 
     43 O          26.3222    3.8287   -8.9916 O.2       6 UNK        -0.5248 
     44 N          25.4723    1.9952   -7.9629 N.am      7 UNK        -0.4718 
     45 CA         24.8902    1.3594   -9.1479 C.3       7 UNK         0.0273 
     46 CB         23.9275    0.2421   -8.7139 C.3       7 UNK        -0.1935 
     47 C          25.9335    0.8282  -10.1449 C.2       7 UNK         0.5018 
     48 O          25.7107    0.9400  -11.3513 O.2       7 UNK        -0.5186 
     49 N          27.0411    0.2711   -9.6370 N.am      8 UNK        -0.4240 
     50 CA         28.1871   -0.1637  -10.4379 C.3       8 UNK         0.0235 
     51 CB         28.6423   -1.5668  -10.0007 C.3       8 UNK        -0.2000 
     52 C          29.3211    0.8598  -10.3118 C.2       8 UNK         0.4941 
     53 O          29.8432    1.3062  -11.3344 O.2       8 UNK        -0.5273 
     54 N          29.6557    1.2335   -9.0669 N.am      9 UNK        -0.4262 
     55 CA         30.6047    2.2706   -8.6329 C.3       9 UNK         0.0264 
     56 CB         30.1345    3.6712   -9.0676 C.3       9 UNK        -0.1955 
     57 C          32.0794    2.0435   -9.0137 C.2       9 UNK         0.5031 
     58 O          32.9471    2.1810   -8.1496 O.2       9 UNK        -0.5390 
     59 N          32.3569    1.6805  -10.2717 N.am      10 UNK        -0.4204 
     60 CA         33.6836    1.3607  -10.8145 C.3       10 UNK         0.0237 
     61 CB         33.6534    1.5500  -12.3426 C.3       10 UNK        -0.1985 
     62 C          34.1480   -0.0508  -10.3973 C.2       10 UNK         0.4970 
     63 O          34.5060   -0.8698  -11.2461 O.2       10 UNK        -0.4914 
     64 N          34.0846   -0.3140   -9.0919 N.am      11 UNK        -0.4285 
     65 CA         34.3228   -1.6091   -8.4511 C.3       11 UNK         0.1007 
     66 C          35.8228   -1.8335   -8.1280 C.2       11 UNK         0.5703 
     67 N          36.2513   -3.0845   -8.0280 N.am      11 UNK        -0.7361 
     68 O          36.5949   -0.8944   -7.9387 O.2       11 UNK        -0.4986 
     69 C69        33.4382   -1.7447   -7.1851 C.3       12 UNK        -0.0947 
     70 S70        31.6650   -1.5942   -7.5995 S.3       12 UNK        -0.2240 
     71 C71        30.9633   -3.0652   -6.7852 C.3       12 UNK         0.0194 
     72 H72        27.5078   -0.3405    2.7529 H         1 UNK         0.0906 
     73 H73        28.9848   -1.2922    2.9284 H         1 UNK         0.0906 
     74 H74        28.8049   -0.1845    1.5667 H         1 UNK         0.0906 
     75 H75        28.2704   -1.1897   -0.3338 H         1 UNK         0.3140 
     76 H76        27.6180   -2.5874   -1.8556 H         1 UNK         0.1085 
     77 H77        26.9899   -4.9198   -0.0073 H         1 UNK         0.0836 
     78 H78        28.6344   -4.4079   -0.1427 H         1 UNK         0.0836 
     79 H79        29.9511   -6.2039   -3.0430 H         1 UNK         0.0731 
     80 H80        30.1953   -5.4135   -1.5128 H         1 UNK         0.0731 
     81 H81        30.2131   -5.0258   -5.1180 H         1 UNK         0.1312 
     82 H82        31.1765   -0.8418   -5.0775 H         1 UNK         0.1406 
     83 H83        30.1579   -2.8348   -1.4365 H         1 UNK         0.1631 
     84 H84        31.3475    0.3564   -3.0100 H         1 UNK         0.0717 
     85 H85        31.4091   -0.5573   -1.5251 H         1 UNK         0.0717 
     86 H86        28.0317    2.1874   -2.6905 H         1 UNK         0.0934 
     87 H87        29.7474    2.3537   -2.9314 H         1 UNK         0.0934 
     88 H88        29.7100    0.9771   -4.9350 H         1 UNK         0.0739 
     89 H89        27.3312   -0.1608   -3.9415 H         1 UNK         0.3093 
     90 H90        26.1295   -1.5875   -6.9687 H         1 UNK         0.0818 
     91 H91        26.4175   -3.7141   -5.6947 H         1 UNK         0.0819 
     92 H92        27.9367   -3.1512   -6.3564 H         1 UNK         0.0819 
     93 H93        27.5997   -2.9342   -4.6439 H         1 UNK         0.0819 
     94 H94        25.0366   -2.1717   -4.5948 H         1 UNK         0.3041 
     95 H95        23.4957    0.5939   -3.3321 H         1 UNK         0.0784 
     96 H96        22.0398    0.6336   -5.3213 H         1 UNK         0.0793 
     97 H97        21.9911   -1.1192   -5.3802 H         1 UNK         0.0793 
     98 H98        21.2533   -0.2583   -4.0291 H         1 UNK         0.0793 
     99 H99        23.7385   -1.1694   -2.0340 H         1 UNK         0.3024 
    100 H100       23.0320   -3.2596   -1.1525 H         1 UNK         0.1171 
    101 H101       23.2118   -5.7215   -1.3539 H         1 UNK         0.0786 
    102 H102       22.0402   -5.1122   -2.5113 H         1 UNK         0.0786 
    103 H103       23.6423   -5.5878   -3.0581 H         1 UNK         0.0786 
    104 H104       25.5416   -4.5093   -1.9932 H         1 UNK         0.2977 
    105 H105       26.4168    1.9500   -5.5036 H         1 UNK         0.3127 
    106 H106       27.3395    4.4841   -6.8159 H         1 UNK         0.0770 
    107 H107       24.5822    3.7611   -5.6818 H         1 UNK         0.0814 
    108 H108       24.9847    5.2431   -6.5401 H         1 UNK         0.0814 
    109 H109       25.7179    4.9115   -4.9787 H         1 UNK         0.0814 
    110 H110       25.2845    1.5439   -7.0701 H         1 UNK         0.2983 
    111 H111       24.3032    2.1176   -9.6714 H         1 UNK         0.0947 
    112 H112       23.4409   -0.2103   -9.5790 H         1 UNK         0.0806 
    113 H113       23.1408    0.6264   -8.0643 H         1 UNK         0.0806 
    114 H114       24.4426   -0.5539   -8.1781 H         1 UNK         0.0806 
    115 H115       27.1652    0.2468   -8.6296 H         1 UNK         0.3000 
    116 H116       27.9141   -0.2227  -11.4937 H         1 UNK         0.0850 
    117 H117       29.5079   -1.8928  -10.5788 H         1 UNK         0.0810 
    118 H118       27.8527   -2.3019  -10.1556 H         1 UNK         0.0810 
    119 H119       28.9248   -1.6019   -8.9494 H         1 UNK         0.0810 
    120 H120       29.1913    0.7441   -8.3039 H         1 UNK         0.3040 
    121 H121       30.5734    2.2398   -7.5438 H         1 UNK         0.0766 
    122 H122       29.1373    3.8868   -8.6853 H         1 UNK         0.0812 
    123 H123       30.1081    3.7764  -10.1525 H         1 UNK         0.0812 
    124 H124       30.8009    4.4432   -8.6806 H         1 UNK         0.0812 
    125 H125       31.5566    1.5488  -10.8902 H         1 UNK         0.3205 
    126 H126       34.4069    2.0690  -10.4051 H         1 UNK         0.0754 
    127 H127       34.6349    1.3642  -12.7811 H         1 UNK         0.0769 
    128 H128       33.3689    2.5679  -12.6098 H         1 UNK         0.0769 
    129 H129       32.9464    0.8690  -12.8184 H         1 UNK         0.0769 
    130 H130       33.7971    0.4403   -8.4770 H         1 UNK         0.2981 
    131 H131       34.0241   -2.3915   -9.1521 H         1 UNK         0.0541 
    132 H132       35.6274   -3.8632   -8.1723 H         1 UNK         0.3459 
    133 H133       37.2204   -3.2537   -7.8078 H         1 UNK         0.3459 
    134 H134       33.6164   -2.7024   -6.6933 H         1 UNK         0.0612 
    135 H135       33.6863   -0.9738   -6.4533 H         1 UNK         0.0612 
    136 H136       31.5991   -3.9250   -7.0011 H         1 UNK         0.0624 
    137 H137       30.0051   -3.2741   -7.2590 H         1 UNK         0.0624 
@<TRIPOS>BOND
     1    1    2 1    
     2    1   72 1    
     3    1   73 1    
     4    1   74 1    
     5    2    3 2    
     6    2    4 am   BACKBONE|DICT|INTERRES
     7    4    5 1    
     8    4   75 1    
     9    5    6 1    
    10    5   35 1    
    11    5   76 1    
    12    6    7 1    
    13    6   77 1    
    14    6   78 1    
    15    7    8 1    
    16    8    9 1    
    17    8   79 1    
    18    8   80 1    
    19    9   10 ar   
    20    9   14 ar   
    21   10   11 ar   
    22   10   81 1    
    23   11   12 ar   
    24   11   71 1    
    25   12   13 ar   
    26   12   82 1    
    27   13   14 ar   
    28   13   15 1    
    29   14   83 1    
    30   15   16 1    
    31   15   84 1    
    32   15   85 1    
    33   16   17 1    
    34   17   18 1    
    35   17   86 1    
    36   17   87 1    
    37   18   19 1    
    38   18   37 1    
    39   18   88 1    
    40   19   20 am   BACKBONE|DICT|INTERRES
    41   19   89 1    
    42   20   21 2    
    43   20   22 1    
    44   22   23 1    
    45   22   24 1    
    46   22   90 1    
    47   23   91 1    
    48   23   92 1    
    49   23   93 1    
    50   24   25 am   BACKBONE|DICT|INTERRES
    51   24   94 1    
    52   25   26 2    
    53   25   27 1    
    54   27   28 1    
    55   27   29 1    
    56   27   95 1    
    57   28   96 1    
    58   28   97 1    
    59   28   98 1    
    60   29   30 am   BACKBONE|DICT|INTERRES
    61   29   99 1    
    62   30   31 2    
    63   30   32 1    
    64   32   33 1    
    65   32   34 1    
    66   32  100 1    
    67   33  101 1    
    68   33  102 1    
    69   33  103 1    
    70   34   35 am   BACKBONE|DICT|INTERRES
    71   34  104 1    
    72   35   36 2    
    73   37   38 2    
    74   37   39 am   BACKBONE|DICT|INTERRES
    75   39   40 1    
    76   39  105 1    
    77   40   41 1    
    78   40   42 1    
    79   40  106 1    
    80   41  107 1    
    81   41  108 1    
    82   41  109 1    
    83   42   43 2    
    84   42   44 am   BACKBONE|DICT|INTERRES
    85   44   45 1    
    86   44  110 1    
    87   45   46 1    
    88   45   47 1    
    89   45  111 1    
    90   46  112 1    
    91   46  113 1    
    92   46  114 1    
    93   47   48 2    
    94   47   49 am   BACKBONE|DICT|INTERRES
    95   49   50 1    
    96   49  115 1    
    97   50   51 1    
    98   50   52 1    
    99   50  116 1    
   100   51  117 1    
   101   51  118 1    
   102   51  119 1    
   103   52   53 2    
   104   52   54 am   BACKBONE|DICT|INTERRES
   105   54   55 1    
   106   54  120 1    
   107   55   56 1    
   108   55   57 1    
   109   55  121 1    
   110   56  122 1    
   111   56  123 1    
   112   56  124 1    
   113   57   58 2    
   114   57   59 am   BACKBONE|DICT|INTERRES
   115   59   60 1    
   116   59  125 1    
   117   60   61 1    
   118   60   62 1    
   119   60  126 1    
   120   61  127 1    
   121   61  128 1    
   122   61  129 1    
   123   62   63 2    
   124   62   64 am   BACKBONE|DICT|INTERRES
   125   64   65 1    
   126   64  130 1    
   127   65   66 1    
   128   65   69 1    
   129   65  131 1    
   130   66   67 am   BACKBONE|DICT|INTERRES
   131   66   68 2    
   132   67  132 1    
   133   67  133 1    
   134   69   70 1    
   135   69  134 1    
   136   69  135 1    
   137   70   71 1    
   138   71  136 1    
   139   71  137 1    
@<TRIPOS>SUBSTRUCTURE
     1 UNK         1 GROUP             0       ****    0 ROOT    
