@<TRIPOS>MOLECULE
3R137
137   139    1
SMALL
USER_CHARGES


@<TRIPOS>ATOM
      1 CA         28.3211   -2.5012   -4.4449 C.3       0 UNK        -0.2020 
      2 C          27.6484   -3.7060   -3.8074 C.2       0 UNK         0.4855 
      3 O          27.0318   -4.5098   -4.5082 O.2       0 UNK        -0.5197 
      4 N          27.7672   -3.8407   -2.4814 N.am      1 UNK        -0.4892 
      5 CA         27.2186   -4.9320   -1.6730 C.3       1 UNK         0.0835 
      6 C6         27.8091   -4.9427   -0.2356 C.3       12 UNK        -0.0855 
      7 S7         29.5373   -5.5201   -0.0103 S.3       12 UNK        -0.2931 
      8 C8         30.4351   -5.2388   -1.5821 C.3       12 UNK         0.0378 
      9 C9         30.8430   -3.7930   -1.8882 C.ar      12 UNK        -0.0802 
     10 C10        31.5492   -3.5464   -3.0699 C.ar      12 UNK        -0.0944 
     11 C11        31.9409   -2.2503   -3.4192 C.ar      12 UNK        -0.0787 
     12 C12        31.6141   -1.1832   -2.5785 C.ar      12 UNK        -0.0862 
     13 C13        30.8992   -1.4087   -1.3996 C.ar      12 UNK        -0.0733 
     14 C14        30.5297   -2.7117   -1.0530 C.ar      12 UNK        -0.0832 
     15 C15        30.5159   -0.2505   -0.4937 C.3       12 UNK         0.0240 
     16 S16        28.9241    0.4773   -0.9961 S.3       12 UNK        -0.2522 
     17 C17        29.4436    1.8153   -2.1264 C.3       12 UNK        -0.0967 
     18 CA         28.8795    1.6782   -3.5669 C.3       5 UNK         0.0660 
     19 N          27.4143    1.5751   -3.5679 N.am      5 UNK        -0.4015 
     20 C          26.6657    1.0845   -4.5632 C.2       4 UNK         0.4946 
     21 O          27.1289    0.6534   -5.6217 O.2       4 UNK        -0.5353 
     22 CA         25.1410    1.1386   -4.3741 C.3       4 UNK         0.0277 
     23 CB         24.5654    2.3800   -5.0756 C.3       4 UNK        -0.1981 
     24 N          24.4991   -0.0616   -4.9147 N.am      4 UNK        -0.4209 
     25 C          24.6217   -1.2806   -4.3751 C.2       3 UNK         0.4942 
     26 O          25.1989   -1.4914   -3.3058 O.2       3 UNK        -0.5208 
     27 CA         24.0085   -2.4457   -5.1723 C.3       3 UNK         0.0250 
     28 CB         24.7182   -2.6327   -6.5257 C.3       3 UNK        -0.1990 
     29 N          24.1208   -3.6941   -4.4188 N.am      3 UNK        -0.4232 
     30 C          23.1868   -4.1848   -3.5935 C.2       2 UNK         0.4993 
     31 O          22.0635   -3.6969   -3.4598 O.2       2 UNK        -0.5286 
     32 CA         23.5627   -5.4359   -2.7774 C.3       2 UNK         0.0209 
     33 CB         23.0682   -6.7090   -3.4836 C.3       2 UNK        -0.1931 
     34 N          25.0063   -5.5421   -2.5463 N.am      2 UNK        -0.4546 
     35 C          25.6791   -4.8180   -1.6416 C.2       1 UNK         0.5154 
     36 O          25.1364   -4.0698   -0.8255 O.2       1 UNK        -0.5181 
     37 C          29.3364    2.8500   -4.4695 C.2       5 UNK         0.5014 
     38 O          29.9162    3.8201   -3.9768 O.2       5 UNK        -0.5248 
     39 N          29.0230    2.7671   -5.7654 N.am      6 UNK        -0.4434 
     40 CA         29.2343    3.8097   -6.7628 C.3       6 UNK         0.0363 
     41 CB         28.0065    4.7434   -6.7727 C.3       6 UNK        -0.1936 
     42 C          29.4795    3.1778   -8.1386 C.2       6 UNK         0.5081 
     43 O          29.4903    1.9493   -8.2710 O.2       6 UNK        -0.5248 
     44 N          29.6477    4.0382   -9.1527 N.am      7 UNK        -0.4718 
     45 CA         29.9253    3.6870  -10.5509 C.3       7 UNK         0.0273 
     46 CB         30.0663    4.9741  -11.3784 C.3       7 UNK        -0.1935 
     47 C          28.8954    2.7439  -11.1986 C.2       7 UNK         0.5018 
     48 O          29.2629    1.9940  -12.1019 O.2       7 UNK        -0.5186 
     49 N          27.6561    2.7381  -10.6856 N.am      8 UNK        -0.4240 
     50 CA         26.5934    1.7888  -11.0359 C.3       8 UNK         0.0235 
     51 CB         25.3138    2.1620  -10.2693 C.3       8 UNK        -0.2000 
     52 C          26.9608    0.3137  -10.7736 C.2       8 UNK         0.4941 
     53 O          26.4780   -0.5595  -11.4951 O.2       8 UNK        -0.5273 
     54 N          27.8197    0.0684   -9.7744 N.am      9 UNK        -0.4262 
     55 CA         28.3917   -1.2402   -9.4490 C.3       9 UNK         0.0264 
     56 CB         28.2325   -1.4691   -7.9369 C.3       9 UNK        -0.1955 
     57 C          29.8761   -1.3349   -9.8541 C.2       9 UNK         0.5031 
     58 O          30.5196   -2.3316   -9.5240 O.2       9 UNK        -0.5390 
     59 N          30.4012   -0.2983  -10.5290 N.am      10 UNK        -0.4204 
     60 CA         31.8143   -0.0527  -10.8481 C.3       10 UNK         0.0237 
     61 CB         32.3582   -1.1157  -11.8268 C.3       10 UNK        -0.1985 
     62 C          32.7041    0.1275   -9.5980 C.2       10 UNK         0.4970 
     63 O          33.9072   -0.1313   -9.6672 O.2       10 UNK        -0.4914 
     64 N          32.1057    0.5725   -8.4868 N.am      11 UNK        -0.4285 
     65 CA         32.7685    0.8075   -7.1982 C.3       11 UNK         0.1007 
     66 C          33.2046    2.2885   -7.0359 C.2       11 UNK         0.5703 
     67 N          34.0721    2.5722   -6.0736 N.am      11 UNK        -0.7361 
     68 O          32.7671    3.1845   -7.7554 O.2       11 UNK        -0.4986 
     69 C69        31.8664    0.3412   -6.0254 C.3       12 UNK        -0.0947 
     70 S70        31.6230   -1.4657   -6.0500 S.3       12 UNK        -0.2240 
     71 C71        32.7177   -2.0132   -4.7053 C.3       12 UNK         0.0194 
     72 H72        29.1131   -2.8298   -5.1161 H         1 UNK         0.0906 
     73 H73        27.5991   -1.9284   -5.0236 H         1 UNK         0.0906 
     74 H74        28.7596   -1.8352   -3.7017 H         1 UNK         0.0906 
     75 H75        28.2741   -3.1353   -1.9666 H         1 UNK         0.3140 
     76 H76        27.4739   -5.8810   -2.1490 H         1 UNK         0.1085 
     77 H77        27.2059   -5.5918    0.4030 H         1 UNK         0.0836 
     78 H78        27.7239   -3.9499    0.2104 H         1 UNK         0.0836 
     79 H79        29.8609   -5.6465   -2.4142 H         1 UNK         0.0731 
     80 H80        31.3480   -5.8344   -1.5371 H         1 UNK         0.0731 
     81 H81        31.7941   -4.3709   -3.7259 H         1 UNK         0.1312 
     82 H82        31.9077   -0.1780   -2.8450 H         1 UNK         0.1406 
     83 H83        29.9875   -2.8669   -0.1316 H         1 UNK         0.1631 
     84 H84        31.3023    0.5053   -0.4783 H         1 UNK         0.0717 
     85 H85        30.4241   -0.6014    0.5354 H         1 UNK         0.0717 
     86 H86        29.1207    2.7574   -1.6784 H         1 UNK         0.0934 
     87 H87        30.5333    1.8637   -2.1590 H         1 UNK         0.0934 
     88 H88        29.2871    0.7604   -3.9975 H         1 UNK         0.0739 
     89 H89        26.9546    1.9228   -2.7393 H         1 UNK         0.3093 
     90 H90        24.9136    1.1995   -3.3074 H         1 UNK         0.0818 
     91 H91        25.0071    3.2946   -4.6773 H         1 UNK         0.0819 
     92 H92        24.7633    2.3655   -6.1486 H         1 UNK         0.0819 
     93 H93        23.4871    2.4538   -4.9331 H         1 UNK         0.0819 
     94 H94        24.0432    0.0344   -5.8100 H         1 UNK         0.3041 
     95 H95        22.9574   -2.2141   -5.3574 H         1 UNK         0.0784 
     96 H96        24.6588   -1.7342   -7.1408 H         1 UNK         0.0793 
     97 H97        25.7737   -2.8725   -6.3966 H         1 UNK         0.0793 
     98 H98        24.2646   -3.4420   -7.0981 H         1 UNK         0.0793 
     99 H99        25.0431   -4.1184   -4.4094 H         1 UNK         0.3024 
    100 H100       23.0566   -5.3602   -1.8119 H         1 UNK         0.1171 
    101 H101       23.5419   -6.8420   -4.4571 H         1 UNK         0.0786 
    102 H102       23.2705   -7.5983   -2.8862 H         1 UNK         0.0786 
    103 H103       21.9904   -6.6693   -3.6483 H         1 UNK         0.0786 
    104 H104       25.5334   -6.0950   -3.2087 H         1 UNK         0.2977 
    105 H105       28.5481    1.9297   -6.0985 H         1 UNK         0.3127 
    106 H106       30.1292    4.3818   -6.5082 H         1 UNK         0.0770 
    107 H107       27.1008    4.2113   -7.0670 H         1 UNK         0.0814 
    108 H108       28.1373    5.5784   -7.4614 H         1 UNK         0.0814 
    109 H109       27.8306    5.1742   -5.7868 H         1 UNK         0.0814 
    110 H110       29.6284    5.0261   -8.9435 H         1 UNK         0.2983 
    111 H111       30.8857    3.1674  -10.5626 H         1 UNK         0.0947 
    112 H112       30.2996    4.7460  -12.4196 H         1 UNK         0.0806 
    113 H113       30.8721    5.6036  -11.0004 H         1 UNK         0.0806 
    114 H114       29.1475    5.5618  -11.3716 H         1 UNK         0.0806 
    115 H115       27.4537    3.3927   -9.9446 H         1 UNK         0.3000 
    116 H116       26.3997    1.8920  -12.1056 H         1 UNK         0.0850 
    117 H117       25.4573    2.1008   -9.1894 H         1 UNK         0.0810 
    118 H118       24.4946    1.4892  -10.5272 H         1 UNK         0.0810 
    119 H119       24.9864    3.1738  -10.5093 H         1 UNK         0.0810 
    120 H120       28.1804    0.8473   -9.2289 H         1 UNK         0.3040 
    121 H121       27.8581   -2.0338   -9.9755 H         1 UNK         0.0766 
    122 H122       28.8238   -0.7577   -7.3583 H         1 UNK         0.0812 
    123 H123       27.1940   -1.3606   -7.6277 H         1 UNK         0.0812 
    124 H124       28.5565   -2.4708   -7.6522 H         1 UNK         0.0812 
    125 H125       29.7678    0.4366  -10.8224 H         1 UNK         0.3205 
    126 H126       31.8390    0.9061  -11.3674 H         1 UNK         0.0754 
    127 H127       33.3501   -0.8433  -12.1894 H         1 UNK         0.0769 
    128 H128       31.7132   -1.2175  -12.6995 H         1 UNK         0.0769 
    129 H129       32.4437   -2.0953  -11.3556 H         1 UNK         0.0769 
    130 H130       31.1273    0.8382   -8.5211 H         1 UNK         0.2981 
    131 H131       33.6859    0.2166   -7.1630 H         1 UNK         0.0541 
    132 H132       34.3659    3.5283   -5.9499 H         1 UNK         0.3459 
    133 H133       34.4497    1.8522   -5.4781 H         1 UNK         0.3459 
    134 H134       30.8855    0.8090   -6.0940 H         1 UNK         0.0612 
    135 H135       32.2787    0.6386   -5.0607 H         1 UNK         0.0612 
    136 H136       33.2102   -2.9347   -5.0191 H         1 UNK         0.0624 
    137 H137       33.5169   -1.2894   -4.5402 H         1 UNK         0.0624 
@<TRIPOS>BOND
     1    1    2 1    
     2    1   72 1    
     3    1   73 1    
     4    1   74 1    
     5    2    3 2    
     6    2    4 am   BACKBONE|DICT|INTERRES
     7    4    5 1    
     8    4   75 1    
     9    5    6 1    
    10    5   35 1    
    11    5   76 1    
    12    6    7 1    
    13    6   77 1    
    14    6   78 1    
    15    7    8 1    
    16    8    9 1    
    17    8   79 1    
    18    8   80 1    
    19    9   10 ar   
    20    9   14 ar   
    21   10   11 ar   
    22   10   81 1    
    23   11   12 ar   
    24   11   71 1    
    25   12   13 ar   
    26   12   82 1    
    27   13   14 ar   
    28   13   15 1    
    29   14   83 1    
    30   15   16 1    
    31   15   84 1    
    32   15   85 1    
    33   16   17 1    
    34   17   18 1    
    35   17   86 1    
    36   17   87 1    
    37   18   19 1    
    38   18   37 1    
    39   18   88 1    
    40   19   20 am   BACKBONE|DICT|INTERRES
    41   19   89 1    
    42   20   21 2    
    43   20   22 1    
    44   22   23 1    
    45   22   24 1    
    46   22   90 1    
    47   23   91 1    
    48   23   92 1    
    49   23   93 1    
    50   24   25 am   BACKBONE|DICT|INTERRES
    51   24   94 1    
    52   25   26 2    
    53   25   27 1    
    54   27   28 1    
    55   27   29 1    
    56   27   95 1    
    57   28   96 1    
    58   28   97 1    
    59   28   98 1    
    60   29   30 am   BACKBONE|DICT|INTERRES
    61   29   99 1    
    62   30   31 2    
    63   30   32 1    
    64   32   33 1    
    65   32   34 1    
    66   32  100 1    
    67   33  101 1    
    68   33  102 1    
    69   33  103 1    
    70   34   35 am   BACKBONE|DICT|INTERRES
    71   34  104 1    
    72   35   36 2    
    73   37   38 2    
    74   37   39 am   BACKBONE|DICT|INTERRES
    75   39   40 1    
    76   39  105 1    
    77   40   41 1    
    78   40   42 1    
    79   40  106 1    
    80   41  107 1    
    81   41  108 1    
    82   41  109 1    
    83   42   43 2    
    84   42   44 am   BACKBONE|DICT|INTERRES
    85   44   45 1    
    86   44  110 1    
    87   45   46 1    
    88   45   47 1    
    89   45  111 1    
    90   46  112 1    
    91   46  113 1    
    92   46  114 1    
    93   47   48 2    
    94   47   49 am   BACKBONE|DICT|INTERRES
    95   49   50 1    
    96   49  115 1    
    97   50   51 1    
    98   50   52 1    
    99   50  116 1    
   100   51  117 1    
   101   51  118 1    
   102   51  119 1    
   103   52   53 2    
   104   52   54 am   BACKBONE|DICT|INTERRES
   105   54   55 1    
   106   54  120 1    
   107   55   56 1    
   108   55   57 1    
   109   55  121 1    
   110   56  122 1    
   111   56  123 1    
   112   56  124 1    
   113   57   58 2    
   114   57   59 am   BACKBONE|DICT|INTERRES
   115   59   60 1    
   116   59  125 1    
   117   60   61 1    
   118   60   62 1    
   119   60  126 1    
   120   61  127 1    
   121   61  128 1    
   122   61  129 1    
   123   62   63 2    
   124   62   64 am   BACKBONE|DICT|INTERRES
   125   64   65 1    
   126   64  130 1    
   127   65   66 1    
   128   65   69 1    
   129   65  131 1    
   130   66   67 am   BACKBONE|DICT|INTERRES
   131   66   68 2    
   132   67  132 1    
   133   67  133 1    
   134   69   70 1    
   135   69  134 1    
   136   69  135 1    
   137   70   71 1    
   138   71  136 1    
   139   71  137 1    
@<TRIPOS>SUBSTRUCTURE
     1 UNK         1 GROUP             0       ****    0 ROOT    
