@<TRIPOS>MOLECULE
3R137
137   139    1
SMALL
USER_CHARGES


@<TRIPOS>ATOM
      1 CA         29.8959   -0.1390   -1.6724 C.3       0 UNK        -0.2020 
      2 C          30.2279   -0.7558   -0.3184 C.2       0 UNK         0.4855 
      3 O          30.9173   -0.1229    0.4790 O.2       0 UNK        -0.5197 
      4 N          29.7802   -1.9796   -0.0091 N.am      1 UNK        -0.4892 
      5 CA         28.9036   -2.8486   -0.8090 C.3       1 UNK         0.0835 
      6 C6         28.9612   -4.3178   -0.3116 C.3       12 UNK        -0.0855 
      7 S7         30.6677   -4.9612   -0.1845 S.3       12 UNK        -0.2931 
      8 C8         30.8597   -5.8808   -1.7445 C.3       12 UNK         0.0378 
      9 C9         30.7335   -4.9875   -2.9720 C.ar      12 UNK        -0.0802 
     10 C10        31.6571   -3.9604   -3.2027 C.ar      12 UNK        -0.0944 
     11 C11        31.5553   -3.1532   -4.3411 C.ar      12 UNK        -0.0787 
     12 C12        30.5214   -3.3879   -5.2522 C.ar      12 UNK        -0.0862 
     13 C13        29.5968   -4.4119   -5.0360 C.ar      12 UNK        -0.0733 
     14 C14        29.7047   -5.2076   -3.8931 C.ar      12 UNK        -0.0832 
     15 C15        28.5043   -4.6745   -6.0577 C.3       12 UNK         0.0240 
     16 S16        26.8867   -4.0848   -5.4744 S.3       12 UNK        -0.2522 
     17 C17        26.0255   -3.8752   -7.0725 C.3       12 UNK        -0.0967 
     18 CA         25.7951   -2.4105   -7.5334 C.3       5 UNK         0.0660 
     19 N          24.6845   -1.7614   -6.8322 N.am      5 UNK        -0.4015 
     20 C          23.8639   -0.8726   -7.4127 C.2       4 UNK         0.4946 
     21 O          23.9403   -0.5396   -8.5962 O.2       4 UNK        -0.5353 
     22 CA         22.7723   -0.2381   -6.5345 C.3       4 UNK         0.0277 
     23 CB         21.5429   -1.1575   -6.4522 C.3       4 UNK        -0.1981 
     24 N          23.2264    0.0940   -5.1838 N.am      4 UNK        -0.4209 
     25 C          24.1669    1.0050   -4.8968 C.2       3 UNK         0.4942 
     26 O          24.7642    1.6706   -5.7433 O.2       3 UNK        -0.5208 
     27 CA         24.5255    1.1749   -3.4092 C.3       3 UNK         0.0250 
     28 CB         23.5719    2.1777   -2.7399 C.3       3 UNK        -0.1990 
     29 N          24.5477   -0.0739   -2.6332 N.am      3 UNK        -0.4232 
     30 C          25.2635   -1.1626   -2.9472 C.2       2 UNK         0.4993 
     31 O          25.8969   -1.2862   -3.9958 O.2       2 UNK        -0.5286 
     32 CA         25.2581   -2.3238   -1.9482 C.3       2 UNK         0.0209 
     33 CB         24.3917   -3.4815   -2.4706 C.3       2 UNK        -0.1931 
     34 N          26.6344   -2.7886   -1.7613 N.am      2 UNK        -0.4546 
     35 C          27.4471   -2.3325   -0.7997 C.2       1 UNK         0.5154 
     36 O          27.0769   -1.5514    0.0817 O.2       1 UNK        -0.5181 
     37 C          27.0586   -1.5276   -7.4955 C.2       5 UNK         0.5014 
     38 O          27.7946   -1.4886   -8.4817 O.2       5 UNK        -0.5248 
     39 N          27.2717   -0.8017   -6.3873 N.am      6 UNK        -0.4434 
     40 CA         28.3900    0.1195   -6.1825 C.3       6 UNK         0.0363 
     41 CB         28.3482    0.6686   -4.7525 C.3       6 UNK        -0.1936 
     42 C          28.4295    1.2718   -7.1938 C.2       6 UNK         0.5081 
     43 O          29.5179    1.6692   -7.6077 O.2       6 UNK        -0.5248 
     44 N          27.2496    1.7528   -7.6092 N.am      7 UNK        -0.4718 
     45 CA         27.0840    2.7477   -8.6707 C.3       7 UNK         0.0273 
     46 CB         25.6125    3.1873   -8.7246 C.3       7 UNK        -0.1935 
     47 C          27.5486    2.2522  -10.0530 C.2       7 UNK         0.5018 
     48 O          28.0391    3.0590  -10.8432 O.2       7 UNK        -0.5186 
     49 N          27.3986    0.9463  -10.3175 N.am      8 UNK        -0.4240 
     50 CA         27.8639    0.2942  -11.5430 C.3       8 UNK         0.0235 
     51 CB         27.0050   -0.9490  -11.8289 C.3       8 UNK        -0.2000 
     52 C          29.3531   -0.0741  -11.4545 C.2       8 UNK         0.4941 
     53 O          30.0818    0.1206  -12.4278 O.2       8 UNK        -0.5273 
     54 N          29.7804   -0.5863  -10.2910 N.am      9 UNK        -0.4262 
     55 CA         31.1670   -0.9612   -9.9947 C.3       9 UNK         0.0264 
     56 CB         31.1946   -1.7929   -8.7034 C.3       9 UNK        -0.1955 
     57 C          32.1240    0.2384   -9.8655 C.2       9 UNK         0.5031 
     58 O          33.3281    0.0589  -10.0527 O.2       9 UNK        -0.5390 
     59 N          31.5748    1.4171   -9.5380 N.am      10 UNK        -0.4204 
     60 CA         32.2533    2.6812   -9.2420 C.3       10 UNK         0.0237 
     61 CB         33.0655    3.1925  -10.4522 C.3       10 UNK        -0.1985 
     62 C          33.0685    2.5867   -7.9402 C.2       10 UNK         0.4970 
     63 O          34.2656    2.8820   -7.9363 O.2       10 UNK        -0.4914 
     64 N          32.3931    2.1764   -6.8607 N.am      11 UNK        -0.4285 
     65 CA         32.9384    2.0924   -5.4983 C.3       11 UNK         0.1007 
     66 C          32.0478    2.8500   -4.4730 C.2       11 UNK         0.5703 
     67 N          32.4477    2.8884   -3.2088 N.am      11 UNK        -0.7361 
     68 O          31.0094    3.4184   -4.8068 O.2       11 UNK        -0.4986 
     69 C69        33.2681    0.6266   -5.0949 C.3       12 UNK        -0.0947 
     70 S70        31.8042   -0.4392   -4.8920 S.3       12 UNK        -0.2240 
     71 C71        32.5827   -2.0587   -4.6095 C.3       12 UNK         0.0194 
     72 H72        30.5191    0.7359   -1.8579 H         1 UNK         0.0906 
     73 H73        30.0773   -0.8410   -2.4845 H         1 UNK         0.0906 
     74 H74        28.8549    0.1808   -1.6994 H         1 UNK         0.0906 
     75 H75        30.0234   -2.3576    0.8949 H         1 UNK         0.3140 
     76 H76        29.2516   -2.8337   -1.8427 H         1 UNK         0.1085 
     77 H77        28.3816   -4.9721   -0.9657 H         1 UNK         0.0836 
     78 H78        28.5051   -4.4028    0.6770 H         1 UNK         0.0836 
     79 H79        31.8420   -6.3552   -1.7533 H         1 UNK         0.0731 
     80 H80        30.1299   -6.6916   -1.7710 H         1 UNK         0.0731 
     81 H81        32.4571   -3.7959   -2.4937 H         1 UNK         0.1312 
     82 H82        30.4412   -2.7740   -6.1369 H         1 UNK         0.1406 
     83 H83        28.9907   -6.0040   -3.7306 H         1 UNK         0.1631 
     84 H84        28.4435   -5.7423   -6.2728 H         1 UNK         0.0717 
     85 H85        28.7565   -4.1844   -6.9997 H         1 UNK         0.0717 
     86 H86        26.5759   -4.4119   -7.8473 H         1 UNK         0.0934 
     87 H87        25.0670   -4.3925   -7.0064 H         1 UNK         0.0934 
     88 H88        25.5205   -2.4822   -8.5885 H         1 UNK         0.0739 
     89 H89        24.6133   -1.9349   -5.8383 H         1 UNK         0.3093 
     90 H90        22.4677    0.6936   -7.0165 H         1 UNK         0.0818 
     91 H91        20.7238   -0.6783   -5.9156 H         1 UNK         0.0819 
     92 H92        21.1733   -1.4038   -7.4488 H         1 UNK         0.0819 
     93 H93        21.7712   -2.0976   -5.9482 H         1 UNK         0.0819 
     94 H94        22.7970   -0.4048   -4.4184 H         1 UNK         0.3041 
     95 H95        25.5316    1.5941   -3.3658 H         1 UNK         0.0784 
     96 H96        23.5509    3.1213   -3.2874 H         1 UNK         0.0793 
     97 H97        22.5491    1.8007   -2.7011 H         1 UNK         0.0793 
     98 H98        23.8854    2.4055   -1.7209 H         1 UNK         0.0793 
     99 H99        24.0410   -0.0633   -1.7594 H         1 UNK         0.3024 
    100 H100       24.8404   -1.9857   -0.9969 H         1 UNK         0.1171 
    101 H101       23.3548   -3.1674   -2.5961 H         1 UNK         0.0786 
    102 H102       24.3934   -4.3210   -1.7753 H         1 UNK         0.0786 
    103 H103       24.7389   -3.8485   -3.4366 H         1 UNK         0.0786 
    104 H104       27.0059   -3.3723   -2.4984 H         1 UNK         0.2977 
    105 H105       26.6604   -0.9462   -5.5837 H         1 UNK         0.3127 
    106 H106       29.3035   -0.4609   -6.3035 H         1 UNK         0.0770 
    107 H107       27.4703    1.2918   -4.5883 H         1 UNK         0.0814 
    108 H108       29.2267    1.2785   -4.5406 H         1 UNK         0.0814 
    109 H109       28.3279   -0.1431   -4.0277 H         1 UNK         0.0814 
    110 H110       26.4047    1.4167   -7.1595 H         1 UNK         0.2983 
    111 H111       27.6947    3.6156   -8.4120 H         1 UNK         0.0947 
    112 H112       25.4547    3.9364   -9.5017 H         1 UNK         0.0806 
    113 H113       25.2970    3.6297   -7.7794 H         1 UNK         0.0806 
    114 H114       24.9487    2.3478   -8.9374 H         1 UNK         0.0806 
    115 H115       27.0288    0.3450   -9.5929 H         1 UNK         0.3000 
    116 H116       27.7399    0.9846  -12.3806 H         1 UNK         0.0850 
    117 H117       27.3110   -1.4257  -12.7611 H         1 UNK         0.0810 
    118 H118       25.9515   -0.6872  -11.9296 H         1 UNK         0.0810 
    119 H119       27.0891   -1.6964  -11.0397 H         1 UNK         0.0810 
    120 H120       29.0897   -0.7858   -9.5688 H         1 UNK         0.3040 
    121 H121       31.5280   -1.5857  -10.8145 H         1 UNK         0.0766 
    122 H122       32.2009   -2.1578   -8.4932 H         1 UNK         0.0812 
    123 H123       30.5393   -2.6615   -8.7715 H         1 UNK         0.0812 
    124 H124       30.8808   -1.1979   -7.8464 H         1 UNK         0.0812 
    125 H125       30.5898    1.4071   -9.2927 H         1 UNK         0.3205 
    126 H126       31.4620    3.4087   -9.0535 H         1 UNK         0.0754 
    127 H127       33.4573    4.1921  -10.2609 H         1 UNK         0.0769 
    128 H128       32.4459    3.2523  -11.3470 H         1 UNK         0.0769 
    129 H129       33.9174    2.5501  -10.6763 H         1 UNK         0.0769 
    130 H130       31.3960    1.9981   -6.9425 H         1 UNK         0.2981 
    131 H131       33.8805    2.6429   -5.4784 H         1 UNK         0.0541 
    132 H132       33.2980    2.4345   -2.9154 H         1 UNK         0.3459 
    133 H133       31.8862    3.3844   -2.5352 H         1 UNK         0.3459 
    134 H134       33.8360    0.6077   -4.1637 H         1 UNK         0.0612 
    135 H135       33.9187    0.1787   -5.8477 H         1 UNK         0.0612 
    136 H136       33.1716   -2.3307   -5.4864 H         1 UNK         0.0624 
    137 H137       33.2799   -1.9717   -3.7748 H         1 UNK         0.0624 
@<TRIPOS>BOND
     1    1    2 1    
     2    1   72 1    
     3    1   73 1    
     4    1   74 1    
     5    2    3 2    
     6    2    4 am   BACKBONE|DICT|INTERRES
     7    4    5 1    
     8    4   75 1    
     9    5    6 1    
    10    5   35 1    
    11    5   76 1    
    12    6    7 1    
    13    6   77 1    
    14    6   78 1    
    15    7    8 1    
    16    8    9 1    
    17    8   79 1    
    18    8   80 1    
    19    9   10 ar   
    20    9   14 ar   
    21   10   11 ar   
    22   10   81 1    
    23   11   12 ar   
    24   11   71 1    
    25   12   13 ar   
    26   12   82 1    
    27   13   14 ar   
    28   13   15 1    
    29   14   83 1    
    30   15   16 1    
    31   15   84 1    
    32   15   85 1    
    33   16   17 1    
    34   17   18 1    
    35   17   86 1    
    36   17   87 1    
    37   18   19 1    
    38   18   37 1    
    39   18   88 1    
    40   19   20 am   BACKBONE|DICT|INTERRES
    41   19   89 1    
    42   20   21 2    
    43   20   22 1    
    44   22   23 1    
    45   22   24 1    
    46   22   90 1    
    47   23   91 1    
    48   23   92 1    
    49   23   93 1    
    50   24   25 am   BACKBONE|DICT|INTERRES
    51   24   94 1    
    52   25   26 2    
    53   25   27 1    
    54   27   28 1    
    55   27   29 1    
    56   27   95 1    
    57   28   96 1    
    58   28   97 1    
    59   28   98 1    
    60   29   30 am   BACKBONE|DICT|INTERRES
    61   29   99 1    
    62   30   31 2    
    63   30   32 1    
    64   32   33 1    
    65   32   34 1    
    66   32  100 1    
    67   33  101 1    
    68   33  102 1    
    69   33  103 1    
    70   34   35 am   BACKBONE|DICT|INTERRES
    71   34  104 1    
    72   35   36 2    
    73   37   38 2    
    74   37   39 am   BACKBONE|DICT|INTERRES
    75   39   40 1    
    76   39  105 1    
    77   40   41 1    
    78   40   42 1    
    79   40  106 1    
    80   41  107 1    
    81   41  108 1    
    82   41  109 1    
    83   42   43 2    
    84   42   44 am   BACKBONE|DICT|INTERRES
    85   44   45 1    
    86   44  110 1    
    87   45   46 1    
    88   45   47 1    
    89   45  111 1    
    90   46  112 1    
    91   46  113 1    
    92   46  114 1    
    93   47   48 2    
    94   47   49 am   BACKBONE|DICT|INTERRES
    95   49   50 1    
    96   49  115 1    
    97   50   51 1    
    98   50   52 1    
    99   50  116 1    
   100   51  117 1    
   101   51  118 1    
   102   51  119 1    
   103   52   53 2    
   104   52   54 am   BACKBONE|DICT|INTERRES
   105   54   55 1    
   106   54  120 1    
   107   55   56 1    
   108   55   57 1    
   109   55  121 1    
   110   56  122 1    
   111   56  123 1    
   112   56  124 1    
   113   57   58 2    
   114   57   59 am   BACKBONE|DICT|INTERRES
   115   59   60 1    
   116   59  125 1    
   117   60   61 1    
   118   60   62 1    
   119   60  126 1    
   120   61  127 1    
   121   61  128 1    
   122   61  129 1    
   123   62   63 2    
   124   62   64 am   BACKBONE|DICT|INTERRES
   125   64   65 1    
   126   64  130 1    
   127   65   66 1    
   128   65   69 1    
   129   65  131 1    
   130   66   67 am   BACKBONE|DICT|INTERRES
   131   66   68 2    
   132   67  132 1    
   133   67  133 1    
   134   69   70 1    
   135   69  134 1    
   136   69  135 1    
   137   70   71 1    
   138   71  136 1    
   139   71  137 1    
@<TRIPOS>SUBSTRUCTURE
     1 UNK         1 GROUP             0       ****    0 ROOT    
