@<TRIPOS>MOLECULE
3R137
137   139    1
SMALL
USER_CHARGES


@<TRIPOS>ATOM
      1 CA         25.9827   -6.4820   -3.5189 C.3       0 UNK        -0.2020 
      2 C          25.9101   -5.3552   -2.5005 C.2       0 UNK         0.4855 
      3 O          24.8115   -4.9784   -2.0924 O.2       0 UNK        -0.5197 
      4 N          27.0713   -4.8139   -2.1038 N.am      1 UNK        -0.4892 
      5 CA         27.2791   -3.7355   -1.1261 C.3       1 UNK         0.0835 
      6 C6         28.7655   -3.2945   -1.0717 C.3       12 UNK        -0.0855 
      7 S7         29.9855   -4.6452   -0.9726 S.3       12 UNK        -0.2931 
      8 C8         31.5230   -3.7038   -0.6780 C.3       12 UNK         0.0378 
      9 C9         31.7147   -2.5538   -1.6631 C.ar      12 UNK        -0.0802 
     10 C10        32.2579   -2.7824   -2.9306 C.ar      12 UNK        -0.0944 
     11 C11        32.4471   -1.7276   -3.8314 C.ar      12 UNK        -0.0787 
     12 C12        32.0794   -0.4300   -3.4456 C.ar      12 UNK        -0.0862 
     13 C13        31.5172   -0.1886   -2.1873 C.ar      12 UNK        -0.0733 
     14 C14        31.3509   -1.2539   -1.2988 C.ar      12 UNK        -0.0832 
     15 C15        31.1259    1.2220   -1.7537 C.3       12 UNK         0.0240 
     16 S16        30.0746    2.1111   -2.9523 S.3       12 UNK        -0.2522 
     17 C17        28.5810    1.0641   -3.0592 C.3       12 UNK        -0.0967 
     18 CA         28.2169    0.7499   -4.5343 C.3       5 UNK         0.0660 
     19 N          27.6269   -0.5861   -4.6839 N.am      5 UNK        -0.4015 
     20 C          27.4481   -1.2190   -5.8524 C.2       4 UNK         0.4946 
     21 O          27.6970   -0.7129   -6.9445 O.2       4 UNK        -0.5353 
     22 CA         26.8683   -2.6350   -5.7977 C.3       4 UNK         0.0277 
     23 CB         27.9146   -3.6242   -5.2594 C.3       4 UNK        -0.1981 
     24 N          25.6522   -2.6874   -4.9836 N.am      4 UNK        -0.4209 
     25 C          24.4187   -2.4435   -5.4505 C.2       3 UNK         0.4942 
     26 O          24.1831   -2.1257   -6.6160 O.2       3 UNK        -0.5208 
     27 CA         23.2390   -2.5952   -4.4726 C.3       3 UNK         0.0250 
     28 CB         22.5693   -3.9672   -4.6541 C.3       3 UNK        -0.1990 
     29 N          23.6328   -2.4363   -3.0713 N.am      3 UNK        -0.4232 
     30 C          23.7536   -1.2517   -2.4546 C.2       2 UNK         0.4993 
     31 O          23.4867   -0.1736   -2.9858 O.2       2 UNK        -0.5286 
     32 CA         24.3038   -1.2626   -1.0139 C.3       2 UNK         0.0209 
     33 CB         23.1535   -1.3573    0.0011 C.3       2 UNK        -0.1931 
     34 N          25.2753   -2.3334   -0.7526 N.am      2 UNK        -0.4546 
     35 C          26.4107   -2.5012   -1.4430 C.2       1 UNK         0.5154 
     36 O          26.7573   -1.7523   -2.3581 O.2       1 UNK        -0.5181 
     37 C          27.3618    1.8627   -5.1843 C.2       5 UNK         0.5014 
     38 O          27.8942    2.9174   -5.5307 O.2       5 UNK        -0.5248 
     39 N          26.0689    1.5868   -5.4162 N.am      6 UNK        -0.4434 
     40 CA         25.1573    2.3975   -6.2284 C.3       6 UNK         0.0363 
     41 CB         23.7525    1.7765   -6.1698 C.3       6 UNK        -0.1936 
     42 C          25.6082    2.5683   -7.6952 C.2       6 UNK         0.5081 
     43 O          25.2198    3.5513   -8.3261 O.2       6 UNK        -0.5248 
     44 N          26.4339    1.6418   -8.2068 N.am      7 UNK        -0.4718 
     45 CA         27.0675    1.7199   -9.5262 C.3       7 UNK         0.0273 
     46 CB         27.2812    0.2933  -10.0595 C.3       7 UNK        -0.1935 
     47 C          28.3909    2.5140   -9.5138 C.2       7 UNK         0.5018 
     48 O          29.0506    2.5851  -10.5532 O.2       7 UNK        -0.5186 
     49 N          28.7665    3.0931   -8.3610 N.am      8 UNK        -0.4240 
     50 CA         29.9596    3.9102   -8.1226 C.3       8 UNK         0.0235 
     51 CB         29.8331    5.2748   -8.8388 C.3       8 UNK        -0.2000 
     52 C          31.2453    3.1332   -8.4544 C.2       8 UNK         0.4941 
     53 O          31.5335    2.1436   -7.7840 O.2       8 UNK        -0.5273 
     54 N          31.9803    3.5670   -9.4867 N.am      9 UNK        -0.4262 
     55 CA         33.2010    2.9209   -9.9755 C.3       9 UNK         0.0264 
     56 CB         33.8967    3.8567  -10.9776 C.3       9 UNK        -0.1955 
     57 C          32.9711    1.5337  -10.6061 C.2       9 UNK         0.5031 
     58 O          33.9229    0.7568  -10.6906 O.2       9 UNK        -0.5390 
     59 N          31.7349    1.2353  -11.0317 N.am      10 UNK        -0.4204 
     60 CA         31.3486   -0.0346  -11.6521 C.3       10 UNK         0.0237 
     61 CB         30.3674    0.2501  -12.8048 C.3       10 UNK        -0.1985 
     62 C          30.7874   -1.0506  -10.6361 C.2       10 UNK         0.4970 
     63 O          30.0578   -1.9579  -11.0382 O.2       10 UNK        -0.4914 
     64 N          31.1293   -0.9015   -9.3481 N.am      11 UNK        -0.4285 
     65 CA         30.7368   -1.8113   -8.2583 C.3       11 UNK         0.1007 
     66 C          31.3113   -3.2574   -8.3419 C.2       11 UNK         0.5703 
     67 N          32.3331   -3.5238   -9.1477 N.am      11 UNK        -0.7361 
     68 O          30.8143   -4.1550   -7.6669 O.2       11 UNK        -0.4986 
     69 C69        30.9868   -1.1698   -6.8682 C.3       12 UNK        -0.0947 
     70 S70        32.7450   -0.8246   -6.5134 S.3       12 UNK        -0.2240 
     71 C71        33.0944   -2.0292   -5.1858 C.3       12 UNK         0.0194 
     72 H72        25.4638   -7.3622   -3.1403 H         1 UNK         0.0906 
     73 H73        25.5035   -6.1780   -4.4491 H         1 UNK         0.0906 
     74 H74        27.0110   -6.7661   -3.7422 H         1 UNK         0.0906 
     75 H75        27.9333   -5.1941   -2.4702 H         1 UNK         0.3140 
     76 H76        26.9968   -4.1225   -0.1451 H         1 UNK         0.1085 
     77 H77        28.9204   -2.6247   -0.2236 H         1 UNK         0.0836 
     78 H78        29.0247   -2.7234   -1.9654 H         1 UNK         0.0836 
     79 H79        32.3721   -4.3860   -0.7402 H         1 UNK         0.0731 
     80 H80        31.5152   -3.3264    0.3458 H         1 UNK         0.0731 
     81 H81        32.5428   -3.7873   -3.2119 H         1 UNK         0.1312 
     82 H82        32.2304    0.4030   -4.1175 H         1 UNK         0.1406 
     83 H83        30.9344   -1.0727   -0.3171 H         1 UNK         0.1631 
     84 H84        32.0372    1.8005   -1.5969 H         1 UNK         0.0717 
     85 H85        30.6074    1.2033   -0.7938 H         1 UNK         0.0717 
     86 H86        28.7752    0.1394   -2.5139 H         1 UNK         0.0934 
     87 H87        27.7557    1.5453   -2.5307 H         1 UNK         0.0934 
     88 H88        29.1458    0.7153   -5.1071 H         1 UNK         0.0739 
     89 H89        27.3497   -1.0541   -3.8200 H         1 UNK         0.3093 
     90 H90        26.6277   -2.9352   -6.8202 H         1 UNK         0.0818 
     91 H91        27.5359   -4.6453   -5.2685 H         1 UNK         0.0819 
     92 H92        28.8119   -3.6126   -5.8788 H         1 UNK         0.0819 
     93 H93        28.2240   -3.3830   -4.2428 H         1 UNK         0.0819 
     94 H94        25.7706   -2.8536   -3.9936 H         1 UNK         0.3041 
     95 H95        22.5040   -1.8274   -4.7250 H         1 UNK         0.0784 
     96 H96        22.2326   -4.1045   -5.6827 H         1 UNK         0.0793 
     97 H97        23.2516   -4.7857   -4.4225 H         1 UNK         0.0793 
     98 H98        21.6946   -4.0689   -4.0116 H         1 UNK         0.0793 
     99 H99        23.8957   -3.2809   -2.5691 H         1 UNK         0.3024 
    100 H100       24.8181   -0.3107   -0.8633 H         1 UNK         0.1171 
    101 H101       23.5173   -1.2619    1.0244 H         1 UNK         0.0786 
    102 H102       22.4262   -0.5595   -0.1576 H         1 UNK         0.0786 
    103 H103       22.6204   -2.3055   -0.0802 H         1 UNK         0.0786 
    104 H104       25.0211   -3.0193   -0.0556 H         1 UNK         0.2977 
    105 H105       25.7103    0.7010   -5.0902 H         1 UNK         0.3127 
    106 H106       25.1149    3.3931   -5.7821 H         1 UNK         0.0770 
    107 H107       23.7398    0.7681   -6.5860 H         1 UNK         0.0814 
    108 H108       23.0376    2.3730   -6.7382 H         1 UNK         0.0814 
    109 H109       23.3838    1.7210   -5.1452 H         1 UNK         0.0814 
    110 H110       26.7266    0.8589   -7.6269 H         1 UNK         0.2983 
    111 H111       26.3937    2.2355  -10.2138 H         1 UNK         0.0947 
    112 H112       28.0495   -0.2368   -9.4968 H         1 UNK         0.0806 
    113 H113       27.5945    0.3081  -11.1028 H         1 UNK         0.0806 
    114 H114       26.3644   -0.2940  -10.0088 H         1 UNK         0.0806 
    115 H115       28.1950    2.9345   -7.5375 H         1 UNK         0.3000 
    116 H116       29.9915    4.1020   -7.0489 H         1 UNK         0.0850 
    117 H117       30.6925    5.9131   -8.6285 H         1 UNK         0.0810 
    118 H118       28.9494    5.8114   -8.4931 H         1 UNK         0.0810 
    119 H119       29.7475    5.1725   -9.9212 H         1 UNK         0.0810 
    120 H120       31.6561    4.3760   -9.9969 H         1 UNK         0.3040 
    121 H121       33.8669    2.7791   -9.1214 H         1 UNK         0.0766 
    122 H122       34.1464    4.8145  -10.5206 H         1 UNK         0.0812 
    123 H123       33.2713    4.0515  -11.8498 H         1 UNK         0.0812 
    124 H124       34.8295    3.4196  -11.3373 H         1 UNK         0.0812 
    125 H125       30.9844    1.9040  -10.8811 H         1 UNK         0.3205 
    126 H126       32.2294   -0.5050  -12.0937 H         1 UNK         0.0754 
    127 H127       30.0937   -0.6659  -13.3300 H         1 UNK         0.0769 
    128 H128       30.8109    0.9198  -13.5418 H         1 UNK         0.0769 
    129 H129       29.4472    0.7119  -12.4498 H         1 UNK         0.0769 
    130 H130       31.7241   -0.1299   -9.0798 H         1 UNK         0.2981 
    131 H131       29.6566   -1.9353   -8.3510 H         1 UNK         0.0541 
    132 H132       32.6915   -4.4642   -9.1956 H         1 UNK         0.3459 
    133 H133       32.7565   -2.7920   -9.6945 H         1 UNK         0.3459 
    134 H134       30.4519   -0.2216   -6.8112 H         1 UNK         0.0612 
    135 H135       30.5640   -1.7899   -6.0762 H         1 UNK         0.0612 
    136 H136       34.1746   -2.0706   -5.0428 H         1 UNK         0.0624 
    137 H137       32.7912   -3.0186   -5.5321 H         1 UNK         0.0624 
@<TRIPOS>BOND
     1    1    2 1    
     2    1   72 1    
     3    1   73 1    
     4    1   74 1    
     5    2    3 2    
     6    2    4 am   BACKBONE|DICT|INTERRES
     7    4    5 1    
     8    4   75 1    
     9    5    6 1    
    10    5   35 1    
    11    5   76 1    
    12    6    7 1    
    13    6   77 1    
    14    6   78 1    
    15    7    8 1    
    16    8    9 1    
    17    8   79 1    
    18    8   80 1    
    19    9   10 ar   
    20    9   14 ar   
    21   10   11 ar   
    22   10   81 1    
    23   11   12 ar   
    24   11   71 1    
    25   12   13 ar   
    26   12   82 1    
    27   13   14 ar   
    28   13   15 1    
    29   14   83 1    
    30   15   16 1    
    31   15   84 1    
    32   15   85 1    
    33   16   17 1    
    34   17   18 1    
    35   17   86 1    
    36   17   87 1    
    37   18   19 1    
    38   18   37 1    
    39   18   88 1    
    40   19   20 am   BACKBONE|DICT|INTERRES
    41   19   89 1    
    42   20   21 2    
    43   20   22 1    
    44   22   23 1    
    45   22   24 1    
    46   22   90 1    
    47   23   91 1    
    48   23   92 1    
    49   23   93 1    
    50   24   25 am   BACKBONE|DICT|INTERRES
    51   24   94 1    
    52   25   26 2    
    53   25   27 1    
    54   27   28 1    
    55   27   29 1    
    56   27   95 1    
    57   28   96 1    
    58   28   97 1    
    59   28   98 1    
    60   29   30 am   BACKBONE|DICT|INTERRES
    61   29   99 1    
    62   30   31 2    
    63   30   32 1    
    64   32   33 1    
    65   32   34 1    
    66   32  100 1    
    67   33  101 1    
    68   33  102 1    
    69   33  103 1    
    70   34   35 am   BACKBONE|DICT|INTERRES
    71   34  104 1    
    72   35   36 2    
    73   37   38 2    
    74   37   39 am   BACKBONE|DICT|INTERRES
    75   39   40 1    
    76   39  105 1    
    77   40   41 1    
    78   40   42 1    
    79   40  106 1    
    80   41  107 1    
    81   41  108 1    
    82   41  109 1    
    83   42   43 2    
    84   42   44 am   BACKBONE|DICT|INTERRES
    85   44   45 1    
    86   44  110 1    
    87   45   46 1    
    88   45   47 1    
    89   45  111 1    
    90   46  112 1    
    91   46  113 1    
    92   46  114 1    
    93   47   48 2    
    94   47   49 am   BACKBONE|DICT|INTERRES
    95   49   50 1    
    96   49  115 1    
    97   50   51 1    
    98   50   52 1    
    99   50  116 1    
   100   51  117 1    
   101   51  118 1    
   102   51  119 1    
   103   52   53 2    
   104   52   54 am   BACKBONE|DICT|INTERRES
   105   54   55 1    
   106   54  120 1    
   107   55   56 1    
   108   55   57 1    
   109   55  121 1    
   110   56  122 1    
   111   56  123 1    
   112   56  124 1    
   113   57   58 2    
   114   57   59 am   BACKBONE|DICT|INTERRES
   115   59   60 1    
   116   59  125 1    
   117   60   61 1    
   118   60   62 1    
   119   60  126 1    
   120   61  127 1    
   121   61  128 1    
   122   61  129 1    
   123   62   63 2    
   124   62   64 am   BACKBONE|DICT|INTERRES
   125   64   65 1    
   126   64  130 1    
   127   65   66 1    
   128   65   69 1    
   129   65  131 1    
   130   66   67 am   BACKBONE|DICT|INTERRES
   131   66   68 2    
   132   67  132 1    
   133   67  133 1    
   134   69   70 1    
   135   69  134 1    
   136   69  135 1    
   137   70   71 1    
   138   71  136 1    
   139   71  137 1    
@<TRIPOS>SUBSTRUCTURE
     1 UNK         1 GROUP             0       ****    0 ROOT    
