@<TRIPOS>MOLECULE
3R137
137   139    1
SMALL
USER_CHARGES


@<TRIPOS>ATOM
      1 CA         24.3673   -4.4491   -3.6315 C.3       0 UNK        -0.2020 
      2 C          25.5328   -3.6639   -3.0503 C.2       0 UNK         0.4855 
      3 O          25.9512   -2.6695   -3.6506 O.2       0 UNK        -0.5197 
      4 N          26.0476   -4.1061   -1.8909 N.am      1 UNK        -0.4892 
      5 CA         27.2132   -3.5656   -1.1772 C.3       1 UNK         0.0835 
      6 C6         28.5221   -3.8547   -1.9608 C.3       12 UNK        -0.0855 
      7 S7         30.0748   -3.4981   -1.0690 S.3       12 UNK        -0.2931 
      8 C8         31.2156   -4.7225   -1.8032 C.3       12 UNK         0.0378 
      9 C9         31.5092   -4.4392   -3.2729 C.ar      12 UNK        -0.0802 
     10 C10        32.6659   -3.7479   -3.6529 C.ar      12 UNK        -0.0944 
     11 C11        32.9347   -3.4984   -5.0044 C.ar      12 UNK        -0.0787 
     12 C12        32.0159   -3.9161   -5.9733 C.ar      12 UNK        -0.0862 
     13 C13        30.8443   -4.5820   -5.6048 C.ar      12 UNK        -0.0733 
     14 C14        30.6226   -4.8798   -4.2594 C.ar      12 UNK        -0.0832 
     15 C15        29.7914   -4.9299   -6.6518 C.3       12 UNK         0.0240 
     16 S16        28.1512   -4.2247   -6.2496 S.3       12 UNK        -0.2522 
     17 C17        28.5584   -2.4782   -5.9023 C.3       12 UNK        -0.0967 
     18 CA         27.7145   -1.4825   -6.7213 C.3       5 UNK         0.0660 
     19 N          26.2881   -1.5710   -6.4057 N.am      5 UNK        -0.4015 
     20 C          25.3190   -1.1039   -7.2041 C.2       4 UNK         0.4946 
     21 O          25.5358   -0.5507   -8.2826 O.2       4 UNK        -0.5353 
     22 CA         23.8757   -1.1924   -6.6784 C.3       4 UNK         0.0277 
     23 CB         23.2808   -2.5782   -6.9716 C.3       4 UNK        -0.1981 
     24 N          23.7564   -0.8920   -5.2464 N.am      4 UNK        -0.4209 
     25 C          24.1807    0.2391   -4.6651 C.2       3 UNK         0.4942 
     26 O          24.7120    1.1595   -5.2859 O.2       3 UNK        -0.5208 
     27 CA         24.0649    0.3478   -3.1420 C.3       3 UNK         0.0250 
     28 CB         23.0009   -0.5779   -2.5186 C.3       3 UNK        -0.1990 
     29 N          25.3767    0.0251   -2.5898 N.am      3 UNK        -0.4232 
     30 C          26.1093    0.8174   -1.7965 C.2       2 UNK         0.4993 
     31 O          25.7332    1.9229   -1.4031 O.2       2 UNK        -0.5286 
     32 CA         27.5079    0.3018   -1.3874 C.3       2 UNK         0.0209 
     33 CB         27.9505    0.8195   -0.0022 C.3       2 UNK        -0.1931 
     34 N          27.6541   -1.1586   -1.4707 N.am      2 UNK        -0.4546 
     35 C          26.9670   -2.0900   -0.7925 C.2       1 UNK         0.5154 
     36 O          26.1275   -1.8350    0.0732 O.2       1 UNK        -0.5181 
     37 C          28.2886   -0.0591   -6.5633 C.2       5 UNK         0.5014 
     38 O          29.4127    0.1624   -7.0152 O.2       5 UNK        -0.5248 
     39 N          27.5767    0.8822   -5.9251 N.am      6 UNK        -0.4434 
     40 CA         27.9815    2.2930   -5.9026 C.3       6 UNK         0.0363 
     41 CB         27.4095    3.0026   -4.6657 C.3       6 UNK        -0.1936 
     42 C          27.5635    3.0123   -7.1961 C.2       6 UNK         0.5081 
     43 O          28.2279    3.9689   -7.5917 O.2       6 UNK        -0.5248 
     44 N          26.4935    2.5303   -7.8432 N.am      7 UNK        -0.4718 
     45 CA         26.0436    2.9980   -9.1520 C.3       7 UNK         0.0273 
     46 CB         24.5311    2.7564   -9.2926 C.3       7 UNK        -0.1935 
     47 C          26.8196    2.3156  -10.2894 C.2       7 UNK         0.5018 
     48 O          27.3019    3.0074  -11.1864 O.2       7 UNK        -0.5186 
     49 N          26.9067    0.9779  -10.2438 N.am      8 UNK        -0.4240 
     50 CA         27.5081    0.1528  -11.2923 C.3       8 UNK         0.0235 
     51 CB         26.9442   -1.2783  -11.2143 C.3       8 UNK        -0.2000 
     52 C          29.0442    0.1622  -11.2507 C.2       8 UNK         0.4941 
     53 O          29.6733    0.6822  -12.1728 O.2       8 UNK        -0.5273 
     54 N          29.6205   -0.4456  -10.2045 N.am      9 UNK        -0.4262 
     55 CA         31.0665   -0.6537  -10.0669 C.3       9 UNK         0.0264 
     56 CB         31.3159   -1.8518   -9.1356 C.3       9 UNK        -0.1955 
     57 C          31.8239    0.5885   -9.5656 C.2       9 UNK         0.5031 
     58 O          33.0273    0.6907   -9.8063 O.2       9 UNK        -0.5390 
     59 N          31.1099    1.4887   -8.8753 N.am      10 UNK        -0.4204 
     60 CA         31.5965    2.6854   -8.1811 C.3       10 UNK         0.0237 
     61 CB         32.2447    3.6888   -9.1597 C.3       10 UNK        -0.1985 
     62 C          32.4831    2.3485   -6.9659 C.2       10 UNK         0.4970 
     63 O          33.4268    3.0861   -6.6747 O.2       10 UNK        -0.4914 
     64 N          32.1519    1.2557   -6.2666 N.am      11 UNK        -0.4285 
     65 CA         32.8591    0.7827   -5.0644 C.3       11 UNK         0.1007 
     66 C          31.9701    0.0222   -4.0439 C.2       11 UNK         0.5703 
     67 N          30.6899   -0.2045   -4.3069 N.am      11 UNK        -0.7361 
     68 O          32.4421   -0.3351   -2.9677 O.2       11 UNK        -0.4986 
     69 C69        34.1814    0.0356   -5.3913 C.3       12 UNK        -0.0947 
     70 S70        33.9830   -1.3867   -6.5195 S.3       12 UNK        -0.2240 
     71 C71        34.2373   -2.8256   -5.4253 C.3       12 UNK         0.0194 
     72 H72        24.6499   -4.8681   -4.5968 H         1 UNK         0.0906 
     73 H73        24.0649   -5.2710   -2.9829 H         1 UNK         0.0906 
     74 H74        23.5047   -3.8015   -3.7790 H         1 UNK         0.0906 
     75 H75        25.6106   -4.8985   -1.4402 H         1 UNK         0.3140 
     76 H76        27.2733   -4.1101   -0.2330 H         1 UNK         0.1085 
     77 H77        28.5239   -4.9177   -2.2016 H         1 UNK         0.0836 
     78 H78        28.5362   -3.3366   -2.9168 H         1 UNK         0.0836 
     79 H79        30.8000   -5.7250   -1.6900 H         1 UNK         0.0731 
     80 H80        32.1451   -4.7170   -1.2320 H         1 UNK         0.0731 
     81 H81        33.3624   -3.4144   -2.8958 H         1 UNK         0.1312 
     82 H82        32.2108   -3.7082   -7.0161 H         1 UNK         0.1406 
     83 H83        29.7288   -5.4207   -3.9857 H         1 UNK         0.1631 
     84 H84        29.7050   -6.0144   -6.7293 H         1 UNK         0.0717 
     85 H85        30.0916   -4.5702   -7.6372 H         1 UNK         0.0717 
     86 H86        28.4264   -2.2932   -4.8380 H         1 UNK         0.0934 
     87 H87        29.6185   -2.3182   -6.1027 H         1 UNK         0.0934 
     88 H88        27.8371   -1.7431   -7.7742 H         1 UNK         0.0739 
     89 H89        26.0478   -2.0059   -5.5189 H         1 UNK         0.3093 
     90 H90        23.2876   -0.4462   -7.2169 H         1 UNK         0.0818 
     91 H91        22.2344   -2.6349   -6.6712 H         1 UNK         0.0819 
     92 H92        23.3214   -2.7998   -8.0391 H         1 UNK         0.0819 
     93 H93        23.8239   -3.3704   -6.4557 H         1 UNK         0.0819 
     94 H94        23.3437   -1.6038   -4.6632 H         1 UNK         0.3041 
     95 H95        23.7916    1.3817   -2.9208 H         1 UNK         0.0784 
     96 H96        22.0231   -0.4228   -2.9770 H         1 UNK         0.0793 
     97 H97        23.2565   -1.6324   -2.6153 H         1 UNK         0.0793 
     98 H98        22.8903   -0.3711   -1.4538 H         1 UNK         0.0793 
     99 H99        25.7659   -0.8690   -2.8768 H         1 UNK         0.3024 
    100 H100       28.1991    0.7157   -2.1230 H         1 UNK         0.1171 
    101 H101       27.9947    1.9092    0.0137 H         1 UNK         0.0786 
    102 H102       27.2613    0.5120    0.7848 H         1 UNK         0.0786 
    103 H103       28.9436    0.4537    0.2588 H         1 UNK         0.0786 
    104 H104       28.3203   -1.4966   -2.1490 H         1 UNK         0.2977 
    105 H105       26.6397    0.6786   -5.5921 H         1 UNK         0.3127 
    106 H106       29.0696    2.3554   -5.8308 H         1 UNK         0.0770 
    107 H107       26.3205    3.0317   -4.6708 H         1 UNK         0.0814 
    108 H108       27.7560    4.0358   -4.6209 H         1 UNK         0.0814 
    109 H109       27.7317    2.5177   -3.7458 H         1 UNK         0.0814 
    110 H110       25.9927    1.7490   -7.4414 H         1 UNK         0.2983 
    111 H111       26.2180    4.0741   -9.2267 H         1 UNK         0.0947 
    112 H112       24.1694    3.1066  -10.2603 H         1 UNK         0.0806 
    113 H113       23.9731    3.2930   -8.5251 H         1 UNK         0.0806 
    114 H114       24.2751    1.6993   -9.2120 H         1 UNK         0.0806 
    115 H115       26.4406    0.4826   -9.4847 H         1 UNK         0.3000 
    116 H116       27.2098    0.5637  -12.2598 H         1 UNK         0.0850 
    117 H117       27.3889   -1.9166  -11.9790 H         1 UNK         0.0810 
    118 H118       25.8662   -1.2832  -11.3773 H         1 UNK         0.0810 
    119 H119       27.1304   -1.7465  -10.2476 H         1 UNK         0.0810 
    120 H120       29.0348   -0.8303   -9.4797 H         1 UNK         0.3040 
    121 H121       31.4727   -0.9060  -11.0490 H         1 UNK         0.0766 
    122 H122       30.9805   -1.6554   -8.1175 H         1 UNK         0.0812 
    123 H123       32.3804   -2.0837   -9.0850 H         1 UNK         0.0812 
    124 H124       30.8083   -2.7481   -9.4922 H         1 UNK         0.0812 
    125 H125       30.1524    1.2320   -8.6671 H         1 UNK         0.3205 
    126 H126       30.7124    3.1692   -7.7682 H         1 UNK         0.0754 
    127 H127       32.4508    4.6382   -8.6641 H         1 UNK         0.0769 
    128 H128       31.5862    3.9008  -10.0022 H         1 UNK         0.0769 
    129 H129       33.1907    3.3192   -9.5560 H         1 UNK         0.0769 
    130 H130       31.3655    0.6977   -6.5756 H         1 UNK         0.2981 
    131 H131       33.1434    1.6779   -4.5081 H         1 UNK         0.0541 
    132 H132       30.2687    0.0781   -5.1791 H         1 UNK         0.3459 
    133 H133       30.1588   -0.7012   -3.6147 H         1 UNK         0.3459 
    134 H134       34.8706    0.7288   -5.8752 H         1 UNK         0.0612 
    135 H135       34.6895   -0.2739   -4.4770 H         1 UNK         0.0612 
    136 H136       34.8354   -3.5593   -5.9670 H         1 UNK         0.0624 
    137 H137       34.8305   -2.5397   -4.5560 H         1 UNK         0.0624 
@<TRIPOS>BOND
     1    1    2 1    
     2    1   72 1    
     3    1   73 1    
     4    1   74 1    
     5    2    3 2    
     6    2    4 am   BACKBONE|DICT|INTERRES
     7    4    5 1    
     8    4   75 1    
     9    5    6 1    
    10    5   35 1    
    11    5   76 1    
    12    6    7 1    
    13    6   77 1    
    14    6   78 1    
    15    7    8 1    
    16    8    9 1    
    17    8   79 1    
    18    8   80 1    
    19    9   10 ar   
    20    9   14 ar   
    21   10   11 ar   
    22   10   81 1    
    23   11   12 ar   
    24   11   71 1    
    25   12   13 ar   
    26   12   82 1    
    27   13   14 ar   
    28   13   15 1    
    29   14   83 1    
    30   15   16 1    
    31   15   84 1    
    32   15   85 1    
    33   16   17 1    
    34   17   18 1    
    35   17   86 1    
    36   17   87 1    
    37   18   19 1    
    38   18   37 1    
    39   18   88 1    
    40   19   20 am   BACKBONE|DICT|INTERRES
    41   19   89 1    
    42   20   21 2    
    43   20   22 1    
    44   22   23 1    
    45   22   24 1    
    46   22   90 1    
    47   23   91 1    
    48   23   92 1    
    49   23   93 1    
    50   24   25 am   BACKBONE|DICT|INTERRES
    51   24   94 1    
    52   25   26 2    
    53   25   27 1    
    54   27   28 1    
    55   27   29 1    
    56   27   95 1    
    57   28   96 1    
    58   28   97 1    
    59   28   98 1    
    60   29   30 am   BACKBONE|DICT|INTERRES
    61   29   99 1    
    62   30   31 2    
    63   30   32 1    
    64   32   33 1    
    65   32   34 1    
    66   32  100 1    
    67   33  101 1    
    68   33  102 1    
    69   33  103 1    
    70   34   35 am   BACKBONE|DICT|INTERRES
    71   34  104 1    
    72   35   36 2    
    73   37   38 2    
    74   37   39 am   BACKBONE|DICT|INTERRES
    75   39   40 1    
    76   39  105 1    
    77   40   41 1    
    78   40   42 1    
    79   40  106 1    
    80   41  107 1    
    81   41  108 1    
    82   41  109 1    
    83   42   43 2    
    84   42   44 am   BACKBONE|DICT|INTERRES
    85   44   45 1    
    86   44  110 1    
    87   45   46 1    
    88   45   47 1    
    89   45  111 1    
    90   46  112 1    
    91   46  113 1    
    92   46  114 1    
    93   47   48 2    
    94   47   49 am   BACKBONE|DICT|INTERRES
    95   49   50 1    
    96   49  115 1    
    97   50   51 1    
    98   50   52 1    
    99   50  116 1    
   100   51  117 1    
   101   51  118 1    
   102   51  119 1    
   103   52   53 2    
   104   52   54 am   BACKBONE|DICT|INTERRES
   105   54   55 1    
   106   54  120 1    
   107   55   56 1    
   108   55   57 1    
   109   55  121 1    
   110   56  122 1    
   111   56  123 1    
   112   56  124 1    
   113   57   58 2    
   114   57   59 am   BACKBONE|DICT|INTERRES
   115   59   60 1    
   116   59  125 1    
   117   60   61 1    
   118   60   62 1    
   119   60  126 1    
   120   61  127 1    
   121   61  128 1    
   122   61  129 1    
   123   62   63 2    
   124   62   64 am   BACKBONE|DICT|INTERRES
   125   64   65 1    
   126   64  130 1    
   127   65   66 1    
   128   65   69 1    
   129   65  131 1    
   130   66   67 am   BACKBONE|DICT|INTERRES
   131   66   68 2    
   132   67  132 1    
   133   67  133 1    
   134   69   70 1    
   135   69  134 1    
   136   69  135 1    
   137   70   71 1    
   138   71  136 1    
   139   71  137 1    
@<TRIPOS>SUBSTRUCTURE
     1 UNK         1 GROUP             0       ****    0 ROOT    
