@<TRIPOS>MOLECULE
3R137
137   139    1
SMALL
USER_CHARGES


@<TRIPOS>ATOM
      1 CA         28.3987   -2.4799    3.5550 C.3       0 UNK        -0.2020 
      2 C          28.6515   -2.0042    2.1324 C.2       0 UNK         0.4855 
      3 O          29.3696   -1.0245    1.9326 O.2       0 UNK        -0.5197 
      4 N          28.0676   -2.6905    1.1415 N.am      1 UNK        -0.4892 
      5 CA         28.2101   -2.3826   -0.2885 C.3       1 UNK         0.0835 
      6 C6         27.7336   -3.5537   -1.1845 C.3       12 UNK        -0.0855 
      7 S7         28.5408   -5.1517   -0.8253 S.3       12 UNK        -0.2931 
      8 C8         30.2455   -4.8893   -1.4277 C.3       12 UNK         0.0378 
      9 C9         30.3318   -4.3555   -2.8551 C.ar      12 UNK        -0.0802 
     10 C10        31.2070   -3.3051   -3.1479 C.ar      12 UNK        -0.0944 
     11 C11        31.3193   -2.7962   -4.4457 C.ar      12 UNK        -0.0787 
     12 C12        30.5176   -3.3464   -5.4567 C.ar      12 UNK        -0.0862 
     13 C13        29.6329   -4.3937   -5.1790 C.ar      12 UNK        -0.0733 
     14 C14        29.5590   -4.9070   -3.8822 C.ar      12 UNK        -0.0832 
     15 C15        28.7654   -4.9784   -6.2831 C.3       12 UNK         0.0240 
     16 S16        27.0292   -4.4352   -6.1334 S.3       12 UNK        -0.2522 
     17 C17        26.5947   -4.1338   -7.8860 C.3       12 UNK        -0.0967 
     18 CA         26.4126   -2.6401   -8.2605 C.3       5 UNK         0.0660 
     19 N          25.2086   -2.0572   -7.6639 N.am      5 UNK        -0.4015 
     20 C          24.7077   -0.8577   -7.9938 C.2       4 UNK         0.4946 
     21 O          25.1806   -0.1439   -8.8786 O.2       4 UNK        -0.5353 
     22 CA         23.5108   -0.3379   -7.1787 C.3       4 UNK         0.0277 
     23 CB         22.1956   -0.6257   -7.9198 C.3       4 UNK        -0.1981 
     24 N          23.4267   -0.8636   -5.8102 N.am      4 UNK        -0.4209 
     25 C          24.3658   -0.7130   -4.8661 C.2       3 UNK         0.4942 
     26 O          25.4563   -0.1700   -5.0598 O.2       3 UNK        -0.5208 
     27 CA         24.0487   -1.3185   -3.4965 C.3       3 UNK         0.0250 
     28 CB         24.3912   -2.8189   -3.4772 C.3       3 UNK        -0.1990 
     29 N          24.8393   -0.6407   -2.4740 N.am      3 UNK        -0.4232 
     30 C          24.4051   -0.2754   -1.2632 C.2       2 UNK         0.4993 
     31 O          23.2506   -0.4494   -0.8674 O.2       2 UNK        -0.5286 
     32 CA         25.4635    0.3232   -0.3172 C.3       2 UNK         0.0209 
     33 CB         24.8520    0.9160    0.9665 C.3       2 UNK        -0.1931 
     34 N          26.4282   -0.7143    0.0519 N.am      2 UNK        -0.4546 
     35 C          27.4625   -1.1002   -0.7078 C.2       1 UNK         0.5154 
     36 O          27.7932   -0.5157   -1.7396 O.2       1 UNK        -0.5181 
     37 C          27.6763   -1.7953   -7.9843 C.2       5 UNK         0.5014 
     38 O          28.5317   -1.6933   -8.8627 O.2       5 UNK        -0.5248 
     39 N          27.7539   -1.1733   -6.7971 N.am      6 UNK        -0.4434 
     40 CA         28.8542   -0.2977   -6.3979 C.3       6 UNK         0.0363 
     41 CB         28.8465   -0.1143   -4.8737 C.3       6 UNK        -0.1936 
     42 C          28.8095    1.0560   -7.1151 C.2       6 UNK         0.5081 
     43 O          29.8663    1.6239   -7.3893 O.2       6 UNK        -0.5248 
     44 N          27.6004    1.5351   -7.4370 N.am      7 UNK        -0.4718 
     45 CA         27.3875    2.7166   -8.2722 C.3       7 UNK         0.0273 
     46 CB         25.9400    3.2122   -8.1233 C.3       7 UNK        -0.1935 
     47 C          27.7327    2.4326   -9.7427 C.2       7 UNK         0.5018 
     48 O          28.4089    3.2486  -10.3681 O.2       7 UNK        -0.5186 
     49 N          27.2979    1.2700  -10.2531 N.am      8 UNK        -0.4240 
     50 CA         27.5712    0.7958  -11.6130 C.3       8 UNK         0.0235 
     51 CB         26.7405   -0.4653  -11.8999 C.3       8 UNK        -0.2000 
     52 C          29.0647    0.5374  -11.8753 C.2       8 UNK         0.4941 
     53 O          29.5795    0.9732  -12.9056 O.2       8 UNK        -0.5273 
     54 N          29.7386   -0.1420  -10.9358 N.am      9 UNK        -0.4262 
     55 CA         31.1816   -0.4039  -10.9787 C.3       9 UNK         0.0264 
     56 CB         31.5043   -1.5838  -10.0479 C.3       9 UNK        -0.1955 
     57 C          32.0415    0.8201  -10.6097 C.2       9 UNK         0.5031 
     58 O          33.2459    0.7992  -10.8662 O.2       9 UNK        -0.5390 
     59 N          31.4210    1.8429  -10.0029 N.am      10 UNK        -0.4204 
     60 CA         32.0071    3.0925   -9.5024 C.3       10 UNK         0.0237 
     61 CB         32.6185    3.9231  -10.6510 C.3       10 UNK        -0.1985 
     62 C          32.9763    2.9049   -8.3163 C.2       10 UNK         0.4970 
     63 O          33.7687    3.8067   -8.0372 O.2       10 UNK        -0.4914 
     64 N          32.8833    1.7630   -7.6233 N.am      11 UNK        -0.4285 
     65 CA         33.6000    1.4743   -6.3734 C.3       11 UNK         0.1007 
     66 C          32.8778    1.9988   -5.0996 C.2       11 UNK         0.5703 
     67 N          31.6217    2.4236   -5.1730 N.am      11 UNK        -0.7361 
     68 O          33.4783    2.0399   -4.0285 O.2       11 UNK        -0.4986 
     69 C69        33.9993   -0.0216   -6.2604 C.3       12 UNK        -0.0947 
     70 S70        32.6165   -1.2028   -6.4254 S.3       12 UNK        -0.2240 
     71 C71        32.3136   -1.6542   -4.6822 C.3       12 UNK         0.0194 
     72 H72        27.7533   -3.3577    3.5838 H         1 UNK         0.0906 
     73 H73        29.3414   -2.7371    4.0373 H         1 UNK         0.0906 
     74 H74        27.9232   -1.6900    4.1359 H         1 UNK         0.0906 
     75 H75        27.5154   -3.5093    1.3574 H         1 UNK         0.3140 
     76 H76        29.2684   -2.2044   -0.4916 H         1 UNK         0.1085 
     77 H77        26.6582   -3.7038   -1.0677 H         1 UNK         0.0836 
     78 H78        27.8787   -3.3142   -2.2398 H         1 UNK         0.0836 
     79 H79        30.7515   -4.2155   -0.7345 H         1 UNK         0.0731 
     80 H80        30.7829   -5.8371   -1.3774 H         1 UNK         0.0731 
     81 H81        31.8139   -2.8809   -2.3593 H         1 UNK         0.1312 
     82 H82        30.5705   -2.9682   -6.4670 H         1 UNK         0.1406 
     83 H83        28.8801   -5.7214   -3.6682 H         1 UNK         0.1631 
     84 H84        28.8028   -6.0681   -6.2467 H         1 UNK         0.0717 
     85 H85        29.1734   -4.6929   -7.2536 H         1 UNK         0.0717 
     86 H86        27.3401   -4.5886   -8.5404 H         1 UNK         0.0934 
     87 H87        25.6726   -4.6773   -8.0986 H         1 UNK         0.0934 
     88 H88        26.2568   -2.6079   -9.3408 H         1 UNK         0.0739 
     89 H89        24.7722   -2.5817   -6.9206 H         1 UNK         0.3093 
     90 H90        23.6275    0.7452   -7.1015 H         1 UNK         0.0818 
     91 H91        21.3455   -0.1658   -7.4155 H         1 UNK         0.0819 
     92 H92        22.2231   -0.2231   -8.9336 H         1 UNK         0.0819 
     93 H93        22.0017   -1.6961   -8.0000 H         1 UNK         0.0819 
     94 H94        22.5693   -1.3392   -5.5658 H         1 UNK         0.3041 
     95 H95        22.9827   -1.1835   -3.3001 H         1 UNK         0.0784 
     96 H96        23.8167   -3.3673   -4.2247 H         1 UNK         0.0793 
     97 H97        25.4484   -2.9937   -3.6839 H         1 UNK         0.0793 
     98 H98        24.1648   -3.2629   -2.5076 H         1 UNK         0.0793 
     99 H99        25.7973   -0.4326   -2.7369 H         1 UNK         0.3024 
    100 H100       25.9731    1.1290   -0.8513 H         1 UNK         0.1171 
    101 H101       25.6182    1.3681    1.5967 H         1 UNK         0.0786 
    102 H102       24.1275    1.6960    0.7284 H         1 UNK         0.0786 
    103 H103       24.3353    0.1596    1.5586 H         1 UNK         0.0786 
    104 H104       26.2126   -1.2660    0.8698 H         1 UNK         0.2977 
    105 H105       26.9829   -1.2522   -6.1445 H         1 UNK         0.3127 
    106 H106       29.7883   -0.7809   -6.6803 H         1 UNK         0.0770 
    107 H107       27.9732    0.4422   -4.5331 H         1 UNK         0.0814 
    108 H108       29.7283    0.4339   -4.5431 H         1 UNK         0.0814 
    109 H109       28.8525   -1.0738   -4.3559 H         1 UNK         0.0814 
    110 H110       26.7845    1.0003   -7.1724 H         1 UNK         0.2983 
    111 H111       28.0535    3.5083   -7.9206 H         1 UNK         0.0947 
    112 H112       25.7815    4.1227   -8.7027 H         1 UNK         0.0806 
    113 H113       25.7059    3.4449   -7.0844 H         1 UNK         0.0806 
    114 H114       25.2160    2.4763   -8.4730 H         1 UNK         0.0806 
    115 H115       26.6918    0.6874   -9.6795 H         1 UNK         0.3000 
    116 H116       27.2464    1.5782  -12.3023 H         1 UNK         0.0850 
    117 H117       26.8894   -0.8055  -12.9255 H         1 UNK         0.0810 
    118 H118       25.6744   -0.2760  -11.7717 H         1 UNK         0.0810 
    119 H119       27.0151   -1.2884  -11.2403 H         1 UNK         0.0810 
    120 H120       29.2300   -0.5373  -10.1460 H         1 UNK         0.3040 
    121 H121       31.4509   -0.6930  -11.9968 H         1 UNK         0.0766 
    122 H122       31.2220   -1.3675   -9.0178 H         1 UNK         0.0812 
    123 H123       32.5706   -1.8136  -10.0539 H         1 UNK         0.0812 
    124 H124       30.9752   -2.4863  -10.3540 H         1 UNK         0.0812 
    125 H125       30.4323    1.7382   -9.8166 H         1 UNK         0.3205 
    126 H126       31.1673    3.6628   -9.1024 H         1 UNK         0.0754 
    127 H127       32.8987    4.9199  -10.3083 H         1 UNK         0.0769 
    128 H128       31.9075    4.0516  -11.4673 H         1 UNK         0.0769 
    129 H129       33.5163    3.4561  -11.0568 H         1 UNK         0.0769 
    130 H130       32.1574    1.1074   -7.8752 H         1 UNK         0.2981 
    131 H131       34.5410    2.0270   -6.4012 H         1 UNK         0.0541 
    132 H132       31.0986    2.3340   -6.0376 H         1 UNK         0.3459 
    133 H133       31.1733    2.7791   -4.3448 H         1 UNK         0.3459 
    134 H134       34.5386   -0.2095   -5.3304 H         1 UNK         0.0612 
    135 H135       34.7099   -0.2556   -7.0544 H         1 UNK         0.0612 
    136 H136       31.9609   -0.7697   -4.1508 H         1 UNK         0.0624 
    137 H137       33.2683   -1.9301   -4.2322 H         1 UNK         0.0624 
@<TRIPOS>BOND
     1    1    2 1    
     2    1   72 1    
     3    1   73 1    
     4    1   74 1    
     5    2    3 2    
     6    2    4 am   BACKBONE|DICT|INTERRES
     7    4    5 1    
     8    4   75 1    
     9    5    6 1    
    10    5   35 1    
    11    5   76 1    
    12    6    7 1    
    13    6   77 1    
    14    6   78 1    
    15    7    8 1    
    16    8    9 1    
    17    8   79 1    
    18    8   80 1    
    19    9   10 ar   
    20    9   14 ar   
    21   10   11 ar   
    22   10   81 1    
    23   11   12 ar   
    24   11   71 1    
    25   12   13 ar   
    26   12   82 1    
    27   13   14 ar   
    28   13   15 1    
    29   14   83 1    
    30   15   16 1    
    31   15   84 1    
    32   15   85 1    
    33   16   17 1    
    34   17   18 1    
    35   17   86 1    
    36   17   87 1    
    37   18   19 1    
    38   18   37 1    
    39   18   88 1    
    40   19   20 am   BACKBONE|DICT|INTERRES
    41   19   89 1    
    42   20   21 2    
    43   20   22 1    
    44   22   23 1    
    45   22   24 1    
    46   22   90 1    
    47   23   91 1    
    48   23   92 1    
    49   23   93 1    
    50   24   25 am   BACKBONE|DICT|INTERRES
    51   24   94 1    
    52   25   26 2    
    53   25   27 1    
    54   27   28 1    
    55   27   29 1    
    56   27   95 1    
    57   28   96 1    
    58   28   97 1    
    59   28   98 1    
    60   29   30 am   BACKBONE|DICT|INTERRES
    61   29   99 1    
    62   30   31 2    
    63   30   32 1    
    64   32   33 1    
    65   32   34 1    
    66   32  100 1    
    67   33  101 1    
    68   33  102 1    
    69   33  103 1    
    70   34   35 am   BACKBONE|DICT|INTERRES
    71   34  104 1    
    72   35   36 2    
    73   37   38 2    
    74   37   39 am   BACKBONE|DICT|INTERRES
    75   39   40 1    
    76   39  105 1    
    77   40   41 1    
    78   40   42 1    
    79   40  106 1    
    80   41  107 1    
    81   41  108 1    
    82   41  109 1    
    83   42   43 2    
    84   42   44 am   BACKBONE|DICT|INTERRES
    85   44   45 1    
    86   44  110 1    
    87   45   46 1    
    88   45   47 1    
    89   45  111 1    
    90   46  112 1    
    91   46  113 1    
    92   46  114 1    
    93   47   48 2    
    94   47   49 am   BACKBONE|DICT|INTERRES
    95   49   50 1    
    96   49  115 1    
    97   50   51 1    
    98   50   52 1    
    99   50  116 1    
   100   51  117 1    
   101   51  118 1    
   102   51  119 1    
   103   52   53 2    
   104   52   54 am   BACKBONE|DICT|INTERRES
   105   54   55 1    
   106   54  120 1    
   107   55   56 1    
   108   55   57 1    
   109   55  121 1    
   110   56  122 1    
   111   56  123 1    
   112   56  124 1    
   113   57   58 2    
   114   57   59 am   BACKBONE|DICT|INTERRES
   115   59   60 1    
   116   59  125 1    
   117   60   61 1    
   118   60   62 1    
   119   60  126 1    
   120   61  127 1    
   121   61  128 1    
   122   61  129 1    
   123   62   63 2    
   124   62   64 am   BACKBONE|DICT|INTERRES
   125   64   65 1    
   126   64  130 1    
   127   65   66 1    
   128   65   69 1    
   129   65  131 1    
   130   66   67 am   BACKBONE|DICT|INTERRES
   131   66   68 2    
   132   67  132 1    
   133   67  133 1    
   134   69   70 1    
   135   69  134 1    
   136   69  135 1    
   137   70   71 1    
   138   71  136 1    
   139   71  137 1    
@<TRIPOS>SUBSTRUCTURE
     1 UNK         1 GROUP             0       ****    0 ROOT    
