@<TRIPOS>MOLECULE
3R137
137   139    1
SMALL
USER_CHARGES


@<TRIPOS>ATOM
      1 CA         26.3775   -6.5168   -3.1473 C.3       0 UNK        -0.2020 
      2 C          26.1125   -5.9822   -1.7488 C.2       0 UNK         0.4855 
      3 O          25.1022   -6.3349   -1.1403 O.2       0 UNK        -0.5197 
      4 N          27.0163   -5.1404   -1.2305 N.am      1 UNK        -0.4892 
      5 CA         26.9132   -4.5135    0.0939 C.3       1 UNK         0.0835 
      6 C6         28.2853   -3.9893    0.5939 C.3       12 UNK        -0.0855 
      7 S7         29.0553   -2.7634   -0.5226 S.3       12 UNK        -0.2931 
      8 C8         30.3749   -3.7341   -1.3167 C.3       12 UNK         0.0378 
      9 C9         30.6051   -3.2310   -2.7317 C.ar      12 UNK        -0.0802 
     10 C10        31.3775   -2.0872   -2.9557 C.ar      12 UNK        -0.0944 
     11 C11        31.5425   -1.5825   -4.2491 C.ar      12 UNK        -0.0787 
     12 C12        30.9127   -2.2304   -5.3169 C.ar      12 UNK        -0.0862 
     13 C13        30.1501   -3.3839   -5.1119 C.ar      12 UNK        -0.0733 
     14 C14        30.0162   -3.8894   -3.8152 C.ar      12 UNK        -0.0832 
     15 C15        29.4953   -4.0741   -6.3062 C.3       12 UNK         0.0240 
     16 S16        27.7805   -4.6435   -6.0231 S.3       12 UNK        -0.2522 
     17 C17        26.9412   -3.1834   -5.3196 C.3       12 UNK        -0.0967 
     18 CA         26.4380   -2.1821   -6.3905 C.3       5 UNK         0.0660 
     19 N          25.2428   -1.4655   -5.9445 N.am      5 UNK        -0.4015 
     20 C          24.3992   -0.8128   -6.7591 C.2       4 UNK         0.4946 
     21 O          24.4739   -0.8427   -7.9875 O.2       4 UNK        -0.5353 
     22 CA         23.2911    0.0337   -6.1023 C.3       4 UNK         0.0277 
     23 CB         21.9817   -0.7673   -6.0202 C.3       4 UNK        -0.1981 
     24 N          23.6395    0.5274   -4.7671 N.am      4 UNK        -0.4209 
     25 C          24.6496    1.3677   -4.4993 C.2       3 UNK         0.4942 
     26 O          25.3550    1.8823   -5.3647 O.2       3 UNK        -0.5208 
     27 CA         24.9698    1.6350   -3.0182 C.3       3 UNK         0.0250 
     28 CB         24.2881    2.9298   -2.5493 C.3       3 UNK        -0.1990 
     29 N          24.6122    0.5366   -2.1108 N.am      3 UNK        -0.4232 
     30 C          25.0794   -0.7174   -2.1894 C.2       2 UNK         0.4993 
     31 O          25.8301   -1.1199   -3.0844 O.2       2 UNK        -0.5286 
     32 CA         24.5688   -1.6973   -1.1298 C.3       2 UNK         0.0209 
     33 CB         23.2075   -2.2848   -1.5423 C.3       2 UNK        -0.1931 
     34 N          25.5378   -2.7770   -0.9827 N.am      2 UNK        -0.4546 
     35 C          25.8199   -3.4225    0.1559 C.2       1 UNK         0.5154 
     36 O          25.2531   -3.1951    1.2265 O.2       1 UNK        -0.5181 
     37 C          27.5319   -1.1724   -6.7809 C.2       5 UNK         0.5014 
     38 O          28.0644   -1.2458   -7.8885 O.2       5 UNK        -0.5248 
     39 N          27.8175   -0.2252   -5.8731 N.am      6 UNK        -0.4434 
     40 CA         28.8162    0.8326   -6.0506 C.3       6 UNK         0.0363 
     41 CB         28.9461    1.6482   -4.7557 C.3       6 UNK        -0.1936 
     42 C          28.5273    1.7451   -7.2529 C.2       6 UNK         0.5081 
     43 O          29.4543    2.1026   -7.9742 O.2       6 UNK        -0.5248 
     44 N          27.2462    2.0495   -7.4966 N.am      7 UNK        -0.4718 
     45 CA         26.7649    2.8048   -8.6582 C.3       7 UNK         0.0273 
     46 CB         25.2547    3.0466   -8.5012 C.3       7 UNK        -0.1935 
     47 C          27.0612    2.1495  -10.0235 C.2       7 UNK         0.5018 
     48 O          27.0178    2.8481  -11.0370 O.2       7 UNK        -0.5186 
     49 N          27.3504    0.8414  -10.0350 N.am      8 UNK        -0.4240 
     50 CA         27.6772    0.0561  -11.2242 C.3       8 UNK         0.0235 
     51 CB         26.7525   -1.1751  -11.2527 C.3       8 UNK        -0.2000 
     52 C          29.1596   -0.3644  -11.2641 C.2       8 UNK         0.4941 
     53 O          29.5158   -1.1725  -12.1248 O.2       8 UNK        -0.5273 
     54 N          29.9972    0.1530  -10.3538 N.am      9 UNK        -0.4262 
     55 CA         31.4010   -0.2307  -10.1987 C.3       9 UNK         0.0264 
     56 CB         31.5469   -0.9746   -8.8623 C.3       9 UNK        -0.1955 
     57 C          32.3114    1.0027  -10.2129 C.2       9 UNK         0.5031 
     58 O          31.8452    2.1250  -10.0085 O.2       9 UNK        -0.5390 
     59 N          33.6177    0.7655  -10.3981 N.am      10 UNK        -0.4204 
     60 CA         34.6684    1.7895  -10.3304 C.3       10 UNK         0.0237 
     61 CB         36.0002    1.1887  -10.8085 C.3       10 UNK        -0.1985 
     62 C          34.8280    2.4109   -8.9294 C.2       10 UNK         0.4970 
     63 O          35.2034    3.5793   -8.8283 O.2       10 UNK        -0.4914 
     64 N          34.5227    1.6290   -7.8856 N.am      11 UNK        -0.4285 
     65 CA         34.4355    2.0750   -6.4877 C.3       11 UNK         0.1007 
     66 C          33.1428    2.8703   -6.1355 C.2       11 UNK         0.5703 
     67 N          32.1972    3.0556   -7.0477 N.am      11 UNK        -0.7361 
     68 O          33.0005    3.3410   -5.0098 O.2       11 UNK        -0.4986 
     69 C69        34.7104    0.9112   -5.4958 C.3       12 UNK        -0.0947 
     70 S70        33.6694   -0.5707   -5.7410 S.3       12 UNK        -0.2240 
     71 C71        32.3766   -0.3260   -4.4795 C.3       12 UNK         0.0194 
     72 H72        27.3944   -6.3075   -3.4767 H         1 UNK         0.0906 
     73 H73        26.2348   -7.5968   -3.1709 H         1 UNK         0.0906 
     74 H74        25.6866   -6.0668   -3.8598 H         1 UNK         0.0906 
     75 H75        27.8210   -4.8660   -1.7736 H         1 UNK         0.3140 
     76 H76        26.5957   -5.2903    0.7938 H         1 UNK         0.1085 
     77 H77        28.1789   -3.5331    1.5802 H         1 UNK         0.0836 
     78 H78        28.9676   -4.8279    0.7412 H         1 UNK         0.0836 
     79 H79        31.2911   -3.6514   -0.7300 H         1 UNK         0.0731 
     80 H80        30.1136   -4.7933   -1.3339 H         1 UNK         0.0731 
     81 H81        31.8336   -1.5808   -2.1158 H         1 UNK         0.1312 
     82 H82        31.0256   -1.8380   -6.3152 H         1 UNK         0.1406 
     83 H83        29.4313   -4.7828   -3.6500 H         1 UNK         0.1631 
     84 H84        30.1029   -4.9373   -6.5798 H         1 UNK         0.0717 
     85 H85        29.4982   -3.4178   -7.1771 H         1 UNK         0.0717 
     86 H86        26.0880   -3.5789   -4.7662 H         1 UNK         0.0934 
     87 H87        27.5626   -2.7033   -4.5617 H         1 UNK         0.0934 
     88 H88        26.1647   -2.7426   -7.2877 H         1 UNK         0.0739 
     89 H89        25.1443   -1.3550   -4.9405 H         1 UNK         0.3093 
     90 H90        23.1233    0.9025   -6.7425 H         1 UNK         0.0818 
     91 H91        21.1638   -0.1547   -5.6407 H         1 UNK         0.0819 
     92 H92        21.6829   -1.1274   -7.0058 H         1 UNK         0.0819 
     93 H93        22.0799   -1.6387   -5.3713 H         1 UNK         0.0819 
     94 H94        23.1061    0.1627   -3.9917 H         1 UNK         0.3041 
     95 H95        26.0503    1.7735   -2.9454 H         1 UNK         0.0784 
     96 H96        24.5577    3.7680   -3.1938 H         1 UNK         0.0793 
     97 H97        23.2009    2.8435   -2.5650 H         1 UNK         0.0793 
     98 H98        24.5907    3.1943   -1.5359 H         1 UNK         0.0793 
     99 H99        23.9825    0.7713   -1.3563 H         1 UNK         0.3024 
    100 H100       24.4694   -1.1615   -0.1827 H         1 UNK         0.1171 
    101 H101       22.4554   -1.5026   -1.6521 H         1 UNK         0.0786 
    102 H102       22.8366   -2.9849   -0.7934 H         1 UNK         0.0786 
    103 H103       23.2699   -2.8171   -2.4925 H         1 UNK         0.0786 
    104 H104       26.0975   -2.9606   -1.8053 H         1 UNK         0.2977 
    105 H105       27.3146   -0.2318   -4.9963 H         1 UNK         0.3127 
    106 H106       29.7727    0.3447   -6.2416 H         1 UNK         0.0770 
    107 H107       28.0196    2.1685   -4.5111 H         1 UNK         0.0814 
    108 H108       29.7288    2.4023   -4.8502 H         1 UNK         0.0814 
    109 H109       29.2107    1.0123   -3.9105 H         1 UNK         0.0814 
    110 H110       26.5466    1.7772   -6.8088 H         1 UNK         0.2983 
    111 H111       27.2718    3.7719   -8.6523 H         1 UNK         0.0947 
    112 H112       24.7007    2.1075   -8.4719 H         1 UNK         0.0806 
    113 H113       25.0331    3.5952   -7.5854 H         1 UNK         0.0806 
    114 H114       24.8615    3.6334   -9.3325 H         1 UNK         0.0806 
    115 H115       27.4018    0.3424   -9.1529 H         1 UNK         0.3000 
    116 H116       27.4921    0.6391  -12.1286 H         1 UNK         0.0850 
    117 H117       26.9077   -1.7665  -12.1558 H         1 UNK         0.0810 
    118 H118       25.7025   -0.8823  -11.2353 H         1 UNK         0.0810 
    119 H119       26.9296   -1.8292  -10.3979 H         1 UNK         0.0810 
    120 H120       29.6737    0.8757   -9.7171 H         1 UNK         0.3040 
    121 H121       31.7155   -0.8904  -11.0099 H         1 UNK         0.0766 
    122 H122       32.5579   -1.3587   -8.7237 H         1 UNK         0.0812 
    123 H123       30.8670   -1.8252   -8.8086 H         1 UNK         0.0812 
    124 H124       31.3260   -0.3155   -8.0220 H         1 UNK         0.0812 
    125 H125       33.9213   -0.1834  -10.5668 H         1 UNK         0.3205 
    126 H126       34.3919    2.5952  -11.0139 H         1 UNK         0.0754 
    127 H127       36.7934    1.9378  -10.7935 H         1 UNK         0.0769 
    128 H128       35.9255    0.8206  -11.8319 H         1 UNK         0.0769 
    129 H129       36.3223    0.3610  -10.1752 H         1 UNK         0.0769 
    130 H130       34.2245    0.6810   -8.0567 H         1 UNK         0.2981 
    131 H131       35.2425    2.7943   -6.3361 H         1 UNK         0.0541 
    132 H132       32.2733    2.6778   -7.9834 H         1 UNK         0.3459 
    133 H133       31.3624    3.5591   -6.7975 H         1 UNK         0.3459 
    134 H134       34.6365    1.2510   -4.4613 H         1 UNK         0.0612 
    135 H135       35.7461    0.5897   -5.6136 H         1 UNK         0.0612 
    136 H136       31.7240    0.4907   -4.7877 H         1 UNK         0.0624 
    137 H137       32.8484   -0.0120   -3.5472 H         1 UNK         0.0624 
@<TRIPOS>BOND
     1    1    2 1    
     2    1   72 1    
     3    1   73 1    
     4    1   74 1    
     5    2    3 2    
     6    2    4 am   BACKBONE|DICT|INTERRES
     7    4    5 1    
     8    4   75 1    
     9    5    6 1    
    10    5   35 1    
    11    5   76 1    
    12    6    7 1    
    13    6   77 1    
    14    6   78 1    
    15    7    8 1    
    16    8    9 1    
    17    8   79 1    
    18    8   80 1    
    19    9   10 ar   
    20    9   14 ar   
    21   10   11 ar   
    22   10   81 1    
    23   11   12 ar   
    24   11   71 1    
    25   12   13 ar   
    26   12   82 1    
    27   13   14 ar   
    28   13   15 1    
    29   14   83 1    
    30   15   16 1    
    31   15   84 1    
    32   15   85 1    
    33   16   17 1    
    34   17   18 1    
    35   17   86 1    
    36   17   87 1    
    37   18   19 1    
    38   18   37 1    
    39   18   88 1    
    40   19   20 am   BACKBONE|DICT|INTERRES
    41   19   89 1    
    42   20   21 2    
    43   20   22 1    
    44   22   23 1    
    45   22   24 1    
    46   22   90 1    
    47   23   91 1    
    48   23   92 1    
    49   23   93 1    
    50   24   25 am   BACKBONE|DICT|INTERRES
    51   24   94 1    
    52   25   26 2    
    53   25   27 1    
    54   27   28 1    
    55   27   29 1    
    56   27   95 1    
    57   28   96 1    
    58   28   97 1    
    59   28   98 1    
    60   29   30 am   BACKBONE|DICT|INTERRES
    61   29   99 1    
    62   30   31 2    
    63   30   32 1    
    64   32   33 1    
    65   32   34 1    
    66   32  100 1    
    67   33  101 1    
    68   33  102 1    
    69   33  103 1    
    70   34   35 am   BACKBONE|DICT|INTERRES
    71   34  104 1    
    72   35   36 2    
    73   37   38 2    
    74   37   39 am   BACKBONE|DICT|INTERRES
    75   39   40 1    
    76   39  105 1    
    77   40   41 1    
    78   40   42 1    
    79   40  106 1    
    80   41  107 1    
    81   41  108 1    
    82   41  109 1    
    83   42   43 2    
    84   42   44 am   BACKBONE|DICT|INTERRES
    85   44   45 1    
    86   44  110 1    
    87   45   46 1    
    88   45   47 1    
    89   45  111 1    
    90   46  112 1    
    91   46  113 1    
    92   46  114 1    
    93   47   48 2    
    94   47   49 am   BACKBONE|DICT|INTERRES
    95   49   50 1    
    96   49  115 1    
    97   50   51 1    
    98   50   52 1    
    99   50  116 1    
   100   51  117 1    
   101   51  118 1    
   102   51  119 1    
   103   52   53 2    
   104   52   54 am   BACKBONE|DICT|INTERRES
   105   54   55 1    
   106   54  120 1    
   107   55   56 1    
   108   55   57 1    
   109   55  121 1    
   110   56  122 1    
   111   56  123 1    
   112   56  124 1    
   113   57   58 2    
   114   57   59 am   BACKBONE|DICT|INTERRES
   115   59   60 1    
   116   59  125 1    
   117   60   61 1    
   118   60   62 1    
   119   60  126 1    
   120   61  127 1    
   121   61  128 1    
   122   61  129 1    
   123   62   63 2    
   124   62   64 am   BACKBONE|DICT|INTERRES
   125   64   65 1    
   126   64  130 1    
   127   65   66 1    
   128   65   69 1    
   129   65  131 1    
   130   66   67 am   BACKBONE|DICT|INTERRES
   131   66   68 2    
   132   67  132 1    
   133   67  133 1    
   134   69   70 1    
   135   69  134 1    
   136   69  135 1    
   137   70   71 1    
   138   71  136 1    
   139   71  137 1    
@<TRIPOS>SUBSTRUCTURE
     1 UNK         1 GROUP             0       ****    0 ROOT    
