@<TRIPOS>MOLECULE
3R137
137   139    1
SMALL
USER_CHARGES


@<TRIPOS>ATOM
      1 CA         25.7581   -5.9089    1.3096 C.3       0 UNK        -0.2020 
      2 C          26.1967   -4.7742    0.3967 C.2       0 UNK         0.4855 
      3 O          26.4764   -5.0103   -0.7793 O.2       0 UNK        -0.5197 
      4 N          26.2510   -3.5429    0.9256 N.am      1 UNK        -0.4892 
      5 CA         26.6331   -2.2885    0.2545 C.3       1 UNK         0.0835 
      6 C6         28.0277   -2.3525   -0.4247 C.3       12 UNK        -0.0855 
      7 S7         28.9675   -0.7997   -0.2637 S.3       12 UNK        -0.2931 
      8 C8         30.6798   -1.4227   -0.2741 C.3       12 UNK         0.0378 
      9 C9         31.1812   -1.7177   -1.6831 C.ar      12 UNK        -0.0802 
     10 C10        32.1312   -0.8796   -2.2755 C.ar      12 UNK        -0.0944 
     11 C11        32.6441   -1.1739   -3.5415 C.ar      12 UNK        -0.0787 
     12 C12        32.1767   -2.2953   -4.2324 C.ar      12 UNK        -0.0862 
     13 C13        31.2106   -3.1296   -3.6633 C.ar      12 UNK        -0.0733 
     14 C14        30.7334   -2.8461   -2.3803 C.ar      12 UNK        -0.0832 
     15 C15        30.7209   -4.3641   -4.4105 C.3       12 UNK         0.0240 
     16 S16        30.0348   -3.9751   -6.0533 S.3       12 UNK        -0.2522 
     17 C17        28.4224   -3.2299   -5.6409 C.3       12 UNK        -0.0967 
     18 CA         27.9527   -2.2313   -6.7356 C.3       5 UNK         0.0660 
     19 N          26.4959   -2.1874   -6.8458 N.am      5 UNK        -0.4015 
     20 C          25.8092   -2.3659   -7.9838 C.2       4 UNK         0.4946 
     21 O          26.3247   -2.7041   -9.0499 O.2       4 UNK        -0.5353 
     22 CA         24.2850   -2.1310   -7.9524 C.3       4 UNK         0.0277 
     23 CB         23.5358   -3.4733   -7.9932 C.3       4 UNK        -0.1981 
     24 N          23.8096   -1.3586   -6.8022 N.am      4 UNK        -0.4209 
     25 C          24.1475   -0.0929   -6.5179 C.2       3 UNK         0.4942 
     26 O          24.8765    0.5984   -7.2254 O.2       3 UNK        -0.5208 
     27 CA         23.6511    0.4702   -5.1756 C.3       3 UNK         0.0250 
     28 CB         22.2963    1.1735   -5.3564 C.3       3 UNK        -0.1990 
     29 N          23.5334   -0.5442   -4.1230 N.am      3 UNK        -0.4232 
     30 C          24.5253   -1.3300   -3.6803 C.2       2 UNK         0.4993 
     31 O          25.6843   -1.2948   -4.1107 O.2       2 UNK        -0.5286 
     32 CA         24.1138   -2.4005   -2.6600 C.3       2 UNK         0.0209 
     33 CB         23.8028   -3.7216   -3.3826 C.3       2 UNK        -0.1931 
     34 N          25.1470   -2.6451   -1.6590 N.am      2 UNK        -0.4546 
     35 C          25.5452   -1.7832   -0.7163 C.2       1 UNK         0.5154 
     36 O          25.0619   -0.6596   -0.5669 O.2       1 UNK        -0.5181 
     37 C          28.4868   -0.8062   -6.5034 C.2       5 UNK         0.5014 
     38 O          29.2945   -0.3199   -7.2994 O.2       5 UNK        -0.5248 
     39 N          28.0198   -0.1658   -5.4209 N.am      6 UNK        -0.4434 
     40 CA         28.5335    1.1098   -4.9246 C.3       6 UNK         0.0363 
     41 CB         28.0549    1.3233   -3.4790 C.3       6 UNK        -0.1936 
     42 C          28.1740    2.3032   -5.8221 C.2       6 UNK         0.5081 
     43 O          29.0694    2.9188   -6.3994 O.2       6 UNK        -0.5248 
     44 N          26.8749    2.6182   -5.9233 N.am      7 UNK        -0.4718 
     45 CA         26.3576    3.7730   -6.6714 C.3       7 UNK         0.0273 
     46 CB         24.8771    3.9978   -6.3283 C.3       7 UNK        -0.1935 
     47 C          26.5512    3.6447   -8.1914 C.2       7 UNK         0.5018 
     48 O          26.7861    4.6506   -8.8614 O.2       7 UNK        -0.5186 
     49 N          26.4937    2.4051   -8.6950 N.am      8 UNK        -0.4240 
     50 CA         26.8221    2.0257  -10.0704 C.3       8 UNK         0.0235 
     51 CB         26.3684    0.5765  -10.3023 C.3       8 UNK        -0.2000 
     52 C          28.3166    2.1729  -10.4184 C.2       8 UNK         0.4941 
     53 O          28.6491    2.1424  -11.6039 O.2       8 UNK        -0.5273 
     54 N          29.1787    2.3233   -9.3995 N.am      9 UNK        -0.4262 
     55 CA         30.6321    2.4825   -9.4748 C.3       9 UNK         0.0264 
     56 CB         31.0077    3.8182  -10.1519 C.3       9 UNK        -0.1955 
     57 C          31.3267    1.2629  -10.1045 C.2       9 UNK         0.5031 
     58 O          32.1578    1.4179  -11.0017 O.2       9 UNK        -0.5390 
     59 N          30.9941    0.0650   -9.6010 N.am      10 UNK        -0.4204 
     60 CA         31.6591   -1.1921   -9.9675 C.3       10 UNK         0.0237 
     61 CB         30.7501   -2.3702   -9.5860 C.3       10 UNK        -0.1985 
     62 C          33.0491   -1.3469   -9.3154 C.2       10 UNK         0.4970 
     63 O          33.7949   -2.2504   -9.6953 O.2       10 UNK        -0.4914 
     64 N          33.3538   -0.4794   -8.3421 N.am      11 UNK        -0.4285 
     65 CA         34.6061   -0.3732   -7.5854 C.3       11 UNK         0.1007 
     66 C          35.8680   -0.2404   -8.4817 C.2       11 UNK         0.5703 
     67 N          36.9573   -0.9078   -8.1252 N.am      11 UNK        -0.7361 
     68 O          35.8811    0.4977   -9.4652 O.2       11 UNK        -0.4986 
     69 C69        34.5348    0.8101   -6.5818 C.3       12 UNK        -0.0947 
     70 S70        33.0731    0.7265   -5.4924 S.3       12 UNK        -0.2240 
     71 C71        33.7317   -0.3096   -4.1547 C.3       12 UNK         0.0194 
     72 H72        26.5405   -6.6651    1.3689 H         1 UNK         0.0906 
     73 H73        24.8582   -6.3802    0.9153 H         1 UNK         0.0906 
     74 H74        25.5447   -5.5621    2.3205 H         1 UNK         0.0906 
     75 H75        25.9773   -3.4272    1.8926 H         1 UNK         0.3140 
     76 H76        26.6829   -1.5565    1.0629 H         1 UNK         0.1085 
     77 H77        27.9507   -2.6189   -1.4807 H         1 UNK         0.0836 
     78 H78        28.6188   -3.1444    0.0372 H         1 UNK         0.0836 
     79 H79        31.3153   -0.6734    0.2006 H         1 UNK         0.0731 
     80 H80        30.7638   -2.3161    0.3462 H         1 UNK         0.0731 
     81 H81        32.4923   -0.0119   -1.7404 H         1 UNK         0.1312 
     82 H82        32.5686   -2.5207   -5.2151 H         1 UNK         0.1406 
     83 H83        30.0204   -3.5147   -1.9209 H         1 UNK         0.1631 
     84 H84        29.9708   -4.9056   -3.8318 H         1 UNK         0.0717 
     85 H85        31.5614   -5.0475   -4.5382 H         1 UNK         0.0717 
     86 H86        27.7131   -4.0551   -5.5575 H         1 UNK         0.0934 
     87 H87        28.4555   -2.7726   -4.6497 H         1 UNK         0.0934 
     88 H88        28.3634   -2.5642   -7.6905 H         1 UNK         0.0739 
     89 H89        25.9964   -1.8981   -6.0119 H         1 UNK         0.3093 
     90 H90        24.0314   -1.5673   -8.8527 H         1 UNK         0.0818 
     91 H91        23.8390   -4.0640   -8.8590 H         1 UNK         0.0819 
     92 H92        23.7339   -4.0738   -7.1044 H         1 UNK         0.0819 
     93 H93        22.4582   -3.3260   -8.0679 H         1 UNK         0.0819 
     94 H94        23.2015   -1.8405   -6.1569 H         1 UNK         0.3041 
     95 H95        24.3805    1.2082   -4.8381 H         1 UNK         0.0784 
     96 H96        22.3388    1.9197   -6.1505 H         1 UNK         0.0793 
     97 H97        21.5067    0.4688   -5.6203 H         1 UNK         0.0793 
     98 H98        21.9938    1.6911   -4.4457 H         1 UNK         0.0793 
     99 H99        22.6142   -0.6558   -3.7185 H         1 UNK         0.3024 
    100 H100       23.2172   -2.0649   -2.1337 H         1 UNK         0.1171 
    101 H101       24.6742   -4.1026   -3.9176 H         1 UNK         0.0786 
    102 H102       23.4803   -4.4910   -2.6805 H         1 UNK         0.0786 
    103 H103       23.0010   -3.5949   -4.1112 H         1 UNK         0.0786 
    104 H104       25.6009   -3.5545   -1.6697 H         1 UNK         0.2977 
    105 H105       27.3079   -0.6154   -4.8500 H         1 UNK         0.3127 
    106 H106       29.6239    1.0396   -4.9020 H         1 UNK         0.0770 
    107 H107       28.4016    2.2803   -3.0870 H         1 UNK         0.0814 
    108 H108       26.9676    1.3059   -3.3960 H         1 UNK         0.0814 
    109 H109       28.4475    0.5462   -2.8243 H         1 UNK         0.0814 
    110 H110       26.1976    2.0267   -5.4670 H         1 UNK         0.2983 
    111 H111       26.9174    4.6529   -6.3460 H         1 UNK         0.0947 
    112 H112       24.2529    3.1824   -6.6912 H         1 UNK         0.0806 
    113 H113       24.5086    4.9144   -6.7906 H         1 UNK         0.0806 
    114 H114       24.7230    4.0929   -5.2534 H         1 UNK         0.0806 
    115 H115       26.1797    1.6599   -8.0768 H         1 UNK         0.3000 
    116 H116       26.2617    2.6785  -10.7428 H         1 UNK         0.0850 
    117 H117       26.5306    0.2743  -11.3378 H         1 UNK         0.0810 
    118 H118       25.3069    0.4499  -10.0890 H         1 UNK         0.0810 
    119 H119       26.9247   -0.1163   -9.6703 H         1 UNK         0.0810 
    120 H120       28.8041    2.3313   -8.4572 H         1 UNK         0.3040 
    121 H121       30.9832    2.5314   -8.4427 H         1 UNK         0.0766 
    122 H122       30.7267    3.8339  -11.2053 H         1 UNK         0.0812 
    123 H123       32.0832    3.9919  -10.1006 H         1 UNK         0.0812 
    124 H124       30.5197    4.6607   -9.6616 H         1 UNK         0.0812 
    125 H125       30.3114    0.0150   -8.8443 H         1 UNK         0.3205 
    126 H126       31.8003   -1.2075  -11.0502 H         1 UNK         0.0754 
    127 H127       31.1681   -3.3162   -9.9324 H         1 UNK         0.0769 
    128 H128       29.7575   -2.2710  -10.0264 H         1 UNK         0.0769 
    129 H129       30.6341   -2.4436   -8.5054 H         1 UNK         0.0769 
    130 H130       32.6540    0.2024   -8.0947 H         1 UNK         0.2981 
    131 H131       34.6958   -1.3002   -7.0164 H         1 UNK         0.0541 
    132 H132       37.7902   -0.8191   -8.6860 H         1 UNK         0.3459 
    133 H133       36.9628   -1.5050   -7.3130 H         1 UNK         0.3459 
    134 H134       34.4912    1.7601   -7.1180 H         1 UNK         0.0612 
    135 H135       35.4351    0.8520   -5.9657 H         1 UNK         0.0612 
    136 H136       34.5201   -0.9600   -4.5359 H         1 UNK         0.0624 
    137 H137       34.1972    0.3303   -3.4036 H         1 UNK         0.0624 
@<TRIPOS>BOND
     1    1    2 1    
     2    1   72 1    
     3    1   73 1    
     4    1   74 1    
     5    2    3 2    
     6    2    4 am   BACKBONE|DICT|INTERRES
     7    4    5 1    
     8    4   75 1    
     9    5    6 1    
    10    5   35 1    
    11    5   76 1    
    12    6    7 1    
    13    6   77 1    
    14    6   78 1    
    15    7    8 1    
    16    8    9 1    
    17    8   79 1    
    18    8   80 1    
    19    9   10 ar   
    20    9   14 ar   
    21   10   11 ar   
    22   10   81 1    
    23   11   12 ar   
    24   11   71 1    
    25   12   13 ar   
    26   12   82 1    
    27   13   14 ar   
    28   13   15 1    
    29   14   83 1    
    30   15   16 1    
    31   15   84 1    
    32   15   85 1    
    33   16   17 1    
    34   17   18 1    
    35   17   86 1    
    36   17   87 1    
    37   18   19 1    
    38   18   37 1    
    39   18   88 1    
    40   19   20 am   BACKBONE|DICT|INTERRES
    41   19   89 1    
    42   20   21 2    
    43   20   22 1    
    44   22   23 1    
    45   22   24 1    
    46   22   90 1    
    47   23   91 1    
    48   23   92 1    
    49   23   93 1    
    50   24   25 am   BACKBONE|DICT|INTERRES
    51   24   94 1    
    52   25   26 2    
    53   25   27 1    
    54   27   28 1    
    55   27   29 1    
    56   27   95 1    
    57   28   96 1    
    58   28   97 1    
    59   28   98 1    
    60   29   30 am   BACKBONE|DICT|INTERRES
    61   29   99 1    
    62   30   31 2    
    63   30   32 1    
    64   32   33 1    
    65   32   34 1    
    66   32  100 1    
    67   33  101 1    
    68   33  102 1    
    69   33  103 1    
    70   34   35 am   BACKBONE|DICT|INTERRES
    71   34  104 1    
    72   35   36 2    
    73   37   38 2    
    74   37   39 am   BACKBONE|DICT|INTERRES
    75   39   40 1    
    76   39  105 1    
    77   40   41 1    
    78   40   42 1    
    79   40  106 1    
    80   41  107 1    
    81   41  108 1    
    82   41  109 1    
    83   42   43 2    
    84   42   44 am   BACKBONE|DICT|INTERRES
    85   44   45 1    
    86   44  110 1    
    87   45   46 1    
    88   45   47 1    
    89   45  111 1    
    90   46  112 1    
    91   46  113 1    
    92   46  114 1    
    93   47   48 2    
    94   47   49 am   BACKBONE|DICT|INTERRES
    95   49   50 1    
    96   49  115 1    
    97   50   51 1    
    98   50   52 1    
    99   50  116 1    
   100   51  117 1    
   101   51  118 1    
   102   51  119 1    
   103   52   53 2    
   104   52   54 am   BACKBONE|DICT|INTERRES
   105   54   55 1    
   106   54  120 1    
   107   55   56 1    
   108   55   57 1    
   109   55  121 1    
   110   56  122 1    
   111   56  123 1    
   112   56  124 1    
   113   57   58 2    
   114   57   59 am   BACKBONE|DICT|INTERRES
   115   59   60 1    
   116   59  125 1    
   117   60   61 1    
   118   60   62 1    
   119   60  126 1    
   120   61  127 1    
   121   61  128 1    
   122   61  129 1    
   123   62   63 2    
   124   62   64 am   BACKBONE|DICT|INTERRES
   125   64   65 1    
   126   64  130 1    
   127   65   66 1    
   128   65   69 1    
   129   65  131 1    
   130   66   67 am   BACKBONE|DICT|INTERRES
   131   66   68 2    
   132   67  132 1    
   133   67  133 1    
   134   69   70 1    
   135   69  134 1    
   136   69  135 1    
   137   70   71 1    
   138   71  136 1    
   139   71  137 1    
@<TRIPOS>SUBSTRUCTURE
     1 UNK         1 GROUP             0       ****    0 ROOT    
