@<TRIPOS>MOLECULE
3R137
137   139    1
SMALL
USER_CHARGES


@<TRIPOS>ATOM
      1 CA         32.8980    0.0904   -0.8696 C.3       0 UNK        -0.2020 
      2 C          31.6057   -0.4942   -1.4179 C.2       0 UNK         0.4855 
      3 O          31.0317    0.0631   -2.3544 O.2       0 UNK        -0.5197 
      4 N          31.1518   -1.6147   -0.8372 N.am      1 UNK        -0.4892 
      5 CA         29.9304   -2.3419   -1.2059 C.3       1 UNK         0.0835 
      6 C6         29.7383   -3.6341   -0.3686 C.3       12 UNK        -0.0855 
      7 S7         31.1888   -4.7438   -0.4063 S.3       12 UNK        -0.2931 
      8 C8         30.6152   -6.0975   -1.4887 C.3       12 UNK         0.0378 
      9 C9         30.3287   -5.6494   -2.9182 C.ar      12 UNK        -0.0802 
     10 C10        31.2469   -4.8579   -3.6157 C.ar      12 UNK        -0.0944 
     11 C11        30.9782   -4.4322   -4.9190 C.ar      12 UNK        -0.0787 
     12 C12        29.7919   -4.8335   -5.5411 C.ar      12 UNK        -0.0862 
     13 C13        28.8839   -5.6615   -4.8730 C.ar      12 UNK        -0.0733 
     14 C14        29.1542   -6.0578   -3.5588 C.ar      12 UNK        -0.0832 
     15 C15        27.6431   -6.1730   -5.5962 C.3       12 UNK         0.0240 
     16 S16        26.0809   -5.7619   -4.7521 S.3       12 UNK        -0.2522 
     17 C17        26.0603   -3.9422   -4.8198 C.3       12 UNK        -0.0967 
     18 CA         25.3550   -3.3869   -6.0883 C.3       5 UNK         0.0660 
     19 N          24.6639   -2.1294   -5.8078 N.am      5 UNK        -0.4015 
     20 C          23.5457   -1.7082   -6.4151 C.2       4 UNK         0.4946 
     21 O          22.9329   -2.3658   -7.2568 O.2       4 UNK        -0.5353 
     22 CA         23.0046   -0.3211   -6.0133 C.3       4 UNK         0.0277 
     23 CB         21.8656   -0.4667   -4.9908 C.3       4 UNK        -0.1981 
     24 N          24.0325    0.5673   -5.4630 N.am      4 UNK        -0.4209 
     25 C          25.0320    1.1011   -6.1793 C.2       3 UNK         0.4942 
     26 O          25.1354    0.9756   -7.3967 O.2       3 UNK        -0.5208 
     27 CA         26.1348    1.8411   -5.4030 C.3       3 UNK         0.0250 
     28 CB         25.8560    3.3512   -5.3544 C.3       3 UNK        -0.1990 
     29 N          26.3414    1.3275   -4.0440 N.am      3 UNK        -0.4232 
     30 C          26.7633    0.0865   -3.7692 C.2       2 UNK         0.4993 
     31 O          27.0083   -0.7630   -4.6319 O.2       2 UNK        -0.5286 
     32 CA         26.8635   -0.3005   -2.2948 C.3       2 UNK         0.0209 
     33 CB         25.5422   -0.9119   -1.7950 C.3       2 UNK        -0.1931 
     34 N          27.9467   -1.2669   -2.1676 N.am      2 UNK        -0.4546 
     35 C          28.6934   -1.4312   -1.0730 C.2       1 UNK         0.5154 
     36 O          28.4547   -0.8853    0.0080 O.2       1 UNK        -0.5181 
     37 C          26.3490   -3.1843   -7.2462 C.2       5 UNK         0.5014 
     38 O          26.3166   -3.9334   -8.2233 O.2       5 UNK        -0.5248 
     39 N          27.2221   -2.1778   -7.1024 N.am      6 UNK        -0.4434 
     40 CA         28.3122   -1.8729   -8.0302 C.3       6 UNK         0.0363 
     41 CB         29.3648   -1.0464   -7.2803 C.3       6 UNK        -0.1936 
     42 C          27.8675   -1.1846   -9.3357 C.2       6 UNK         0.5081 
     43 O          28.5995   -1.2592  -10.3241 O.2       6 UNK        -0.5248 
     44 N          26.6852   -0.5521   -9.3340 N.am      7 UNK        -0.4718 
     45 CA         25.9856    0.1126  -10.4429 C.3       7 UNK         0.0273 
     46 CB         25.6907   -0.8608  -11.6013 C.3       7 UNK        -0.1935 
     47 C          26.6606    1.4008  -10.9427 C.2       7 UNK         0.5018 
     48 O          26.0163    2.4511  -10.9651 O.2       7 UNK        -0.5186 
     49 N          27.9392    1.3196  -11.3268 N.am      8 UNK        -0.4240 
     50 CA         28.7583    2.4373  -11.8059 C.3       8 UNK         0.0235 
     51 CB         29.8693    1.8807  -12.7162 C.3       8 UNK        -0.2000 
     52 C          29.3086    3.2600  -10.6248 C.2       8 UNK         0.4941 
     53 O          30.5259    3.3392  -10.4457 O.2       8 UNK        -0.5273 
     54 N          28.3872    3.8162   -9.8222 N.am      9 UNK        -0.4262 
     55 CA         28.5929    4.3809   -8.4802 C.3       9 UNK         0.0264 
     56 CB         29.5402    5.6010   -8.5179 C.3       9 UNK        -0.1955 
     57 C          29.0401    3.2922   -7.4815 C.2       9 UNK         0.5031 
     58 O          28.9155    2.1046   -7.7820 O.2       9 UNK        -0.5390 
     59 N          29.5167    3.6943   -6.2964 N.am      10 UNK        -0.4204 
     60 CA         30.1059    2.7805   -5.3128 C.3       10 UNK         0.0237 
     61 CB         30.1429    3.4623   -3.9360 C.3       10 UNK        -0.1985 
     62 C          31.5170    2.3574   -5.7562 C.2       10 UNK         0.4970 
     63 O          32.2610    3.1899   -6.2820 O.2       10 UNK        -0.4914 
     64 N          31.8580    1.0849   -5.5322 N.am      11 UNK        -0.4285 
     65 CA         33.1732    0.5058   -5.8418 C.3       11 UNK         0.1007 
     66 C          34.2731    0.8777   -4.8047 C.2       11 UNK         0.5703 
     67 N          35.5216    0.5135   -5.0682 N.am      11 UNK        -0.7361 
     68 O          34.0223    1.4989   -3.7738 O.2       11 UNK        -0.4986 
     69 C69        33.0738   -1.0196   -6.1250 C.3       12 UNK        -0.0947 
     70 S70        32.2346   -1.9694   -4.8153 S.3       12 UNK        -0.2240 
     71 C71        31.9819   -3.5603   -5.6597 C.3       12 UNK         0.0194 
     72 H72        32.8090    1.1717   -0.7680 H         1 UNK         0.0906 
     73 H73        33.1503   -0.3224    0.1069 H         1 UNK         0.0906 
     74 H74        33.7200   -0.1193   -1.5534 H         1 UNK         0.0906 
     75 H75        31.6730   -2.0239   -0.0751 H         1 UNK         0.3140 
     76 H76        30.0389   -2.6271   -2.2546 H         1 UNK         0.1085 
     77 H77        28.8583   -4.1812   -0.7131 H         1 UNK         0.0836 
     78 H78        29.5453   -3.3854    0.6770 H         1 UNK         0.0836 
     79 H79        31.3826   -6.8721   -1.5156 H         1 UNK         0.0731 
     80 H80        29.7321   -6.5547   -1.0393 H         1 UNK         0.0731 
     81 H81        32.1676   -4.5536   -3.1365 H         1 UNK         0.1312 
     82 H82        29.5874   -4.5223   -6.5563 H         1 UNK         0.1406 
     83 H83        28.4506   -6.6968   -3.0419 H         1 UNK         0.1631 
     84 H84        27.7143   -7.2584   -5.6765 H         1 UNK         0.0717 
     85 H85        27.6051   -5.8002   -6.6202 H         1 UNK         0.0717 
     86 H86        25.5138   -3.6289   -3.9295 H         1 UNK         0.0934 
     87 H87        27.0675   -3.5433   -4.6851 H         1 UNK         0.0934 
     88 H88        24.6085   -4.1147   -6.4150 H         1 UNK         0.0739 
     89 H89        25.1425   -1.4988   -5.1779 H         1 UNK         0.3093 
     90 H90        22.5994    0.1448   -6.9144 H         1 UNK         0.0818 
     91 H91        21.4196    0.4991   -4.7524 H         1 UNK         0.0819 
     92 H92        21.0687   -1.1005   -5.3828 H         1 UNK         0.0819 
     93 H93        22.2114   -0.9177   -4.0597 H         1 UNK         0.0819 
     94 H94        24.0068    0.7394   -4.4687 H         1 UNK         0.3041 
     95 H95        27.0632    1.6819   -5.9524 H         1 UNK         0.0784 
     96 H96        25.7213    3.7538   -6.3594 H         1 UNK         0.0793 
     97 H97        24.9525    3.5788   -4.7875 H         1 UNK         0.0793 
     98 H98        26.6859    3.8926   -4.8998 H         1 UNK         0.0793 
     99 H99        26.1445    1.9633   -3.2837 H         1 UNK         0.3024 
    100 H100       27.1031    0.5928   -1.7126 H         1 UNK         0.1171 
    101 H101       24.7191   -0.2027   -1.8897 H         1 UNK         0.0786 
    102 H102       25.6080   -1.1882   -0.7424 H         1 UNK         0.0786 
    103 H103       25.2714   -1.8063   -2.3562 H         1 UNK         0.0786 
    104 H104       28.2188   -1.6988   -3.0422 H         1 UNK         0.2977 
    105 H105       27.1803   -1.6144   -6.2546 H         1 UNK         0.3127 
    106 H106       28.7803   -2.8147   -8.3242 H         1 UNK         0.0770 
    107 H107       30.1420   -0.6770   -7.9508 H         1 UNK         0.0814 
    108 H108       28.9166   -0.1868   -6.7845 H         1 UNK         0.0814 
    109 H109       29.8487   -1.6439   -6.5104 H         1 UNK         0.0814 
    110 H110       26.2139   -0.4512   -8.4415 H         1 UNK         0.2983 
    111 H111       25.0214    0.4156  -10.0312 H         1 UNK         0.0947 
    112 H112       25.0835   -0.3778  -12.3680 H         1 UNK         0.0806 
    113 H113       25.1381   -1.7332  -11.2522 H         1 UNK         0.0806 
    114 H114       26.6011   -1.2136  -12.0864 H         1 UNK         0.0806 
    115 H115       28.4040    0.4257  -11.1854 H         1 UNK         0.3000 
    116 H116       28.1376    3.1046  -12.4081 H         1 UNK         0.0850 
    117 H117       30.4914    2.6851  -13.1108 H         1 UNK         0.0810 
    118 H118       29.4516    1.3467  -13.5699 H         1 UNK         0.0810 
    119 H119       30.5239    1.1932  -12.1787 H         1 UNK         0.0810 
    120 H120       27.4201    3.6234  -10.0642 H         1 UNK         0.3040 
    121 H121       27.6128    4.7239   -8.1458 H         1 UNK         0.0766 
    122 H122       29.4959    6.1681   -7.5879 H         1 UNK         0.0812 
    123 H123       29.2685    6.2875   -9.3199 H         1 UNK         0.0812 
    124 H124       30.5790    5.3054   -8.6706 H         1 UNK         0.0812 
    125 H125       29.6289    4.6821   -6.1231 H         1 UNK         0.3205 
    126 H126       29.4766    1.8908   -5.2350 H         1 UNK         0.0754 
    127 H127       30.5609    2.7916   -3.1835 H         1 UNK         0.0769 
    128 H128       29.1423    3.7384   -3.6031 H         1 UNK         0.0769 
    129 H129       30.7574    4.3634   -3.9465 H         1 UNK         0.0769 
    130 H130       31.2366    0.4850   -5.0077 H         1 UNK         0.2981 
    131 H131       33.5053    0.9653   -6.7749 H         1 UNK         0.0541 
    132 H132       35.7541    0.0115   -5.9106 H         1 UNK         0.3459 
    133 H133       36.2472    0.7500   -4.4100 H         1 UNK         0.3459 
    134 H134       34.0564   -1.4587   -6.3034 H         1 UNK         0.0612 
    135 H135       32.5173   -1.1650   -7.0518 H         1 UNK         0.0612 
    136 H136       31.6476   -3.3795   -6.6822 H         1 UNK         0.0624 
    137 H137       32.9362   -4.0836   -5.7314 H         1 UNK         0.0624 
@<TRIPOS>BOND
     1    1    2 1    
     2    1   72 1    
     3    1   73 1    
     4    1   74 1    
     5    2    3 2    
     6    2    4 am   BACKBONE|DICT|INTERRES
     7    4    5 1    
     8    4   75 1    
     9    5    6 1    
    10    5   35 1    
    11    5   76 1    
    12    6    7 1    
    13    6   77 1    
    14    6   78 1    
    15    7    8 1    
    16    8    9 1    
    17    8   79 1    
    18    8   80 1    
    19    9   10 ar   
    20    9   14 ar   
    21   10   11 ar   
    22   10   81 1    
    23   11   12 ar   
    24   11   71 1    
    25   12   13 ar   
    26   12   82 1    
    27   13   14 ar   
    28   13   15 1    
    29   14   83 1    
    30   15   16 1    
    31   15   84 1    
    32   15   85 1    
    33   16   17 1    
    34   17   18 1    
    35   17   86 1    
    36   17   87 1    
    37   18   19 1    
    38   18   37 1    
    39   18   88 1    
    40   19   20 am   BACKBONE|DICT|INTERRES
    41   19   89 1    
    42   20   21 2    
    43   20   22 1    
    44   22   23 1    
    45   22   24 1    
    46   22   90 1    
    47   23   91 1    
    48   23   92 1    
    49   23   93 1    
    50   24   25 am   BACKBONE|DICT|INTERRES
    51   24   94 1    
    52   25   26 2    
    53   25   27 1    
    54   27   28 1    
    55   27   29 1    
    56   27   95 1    
    57   28   96 1    
    58   28   97 1    
    59   28   98 1    
    60   29   30 am   BACKBONE|DICT|INTERRES
    61   29   99 1    
    62   30   31 2    
    63   30   32 1    
    64   32   33 1    
    65   32   34 1    
    66   32  100 1    
    67   33  101 1    
    68   33  102 1    
    69   33  103 1    
    70   34   35 am   BACKBONE|DICT|INTERRES
    71   34  104 1    
    72   35   36 2    
    73   37   38 2    
    74   37   39 am   BACKBONE|DICT|INTERRES
    75   39   40 1    
    76   39  105 1    
    77   40   41 1    
    78   40   42 1    
    79   40  106 1    
    80   41  107 1    
    81   41  108 1    
    82   41  109 1    
    83   42   43 2    
    84   42   44 am   BACKBONE|DICT|INTERRES
    85   44   45 1    
    86   44  110 1    
    87   45   46 1    
    88   45   47 1    
    89   45  111 1    
    90   46  112 1    
    91   46  113 1    
    92   46  114 1    
    93   47   48 2    
    94   47   49 am   BACKBONE|DICT|INTERRES
    95   49   50 1    
    96   49  115 1    
    97   50   51 1    
    98   50   52 1    
    99   50  116 1    
   100   51  117 1    
   101   51  118 1    
   102   51  119 1    
   103   52   53 2    
   104   52   54 am   BACKBONE|DICT|INTERRES
   105   54   55 1    
   106   54  120 1    
   107   55   56 1    
   108   55   57 1    
   109   55  121 1    
   110   56  122 1    
   111   56  123 1    
   112   56  124 1    
   113   57   58 2    
   114   57   59 am   BACKBONE|DICT|INTERRES
   115   59   60 1    
   116   59  125 1    
   117   60   61 1    
   118   60   62 1    
   119   60  126 1    
   120   61  127 1    
   121   61  128 1    
   122   61  129 1    
   123   62   63 2    
   124   62   64 am   BACKBONE|DICT|INTERRES
   125   64   65 1    
   126   64  130 1    
   127   65   66 1    
   128   65   69 1    
   129   65  131 1    
   130   66   67 am   BACKBONE|DICT|INTERRES
   131   66   68 2    
   132   67  132 1    
   133   67  133 1    
   134   69   70 1    
   135   69  134 1    
   136   69  135 1    
   137   70   71 1    
   138   71  136 1    
   139   71  137 1    
@<TRIPOS>SUBSTRUCTURE
     1 UNK         1 GROUP             0       ****    0 ROOT    
