@<TRIPOS>MOLECULE
3R137
137   139    1
SMALL
USER_CHARGES


@<TRIPOS>ATOM
      1 CA         25.4651   -4.1211    2.2382 C.3       0 UNK        -0.2020 
      2 C          26.4355   -3.2378    1.4683 C.2       0 UNK         0.4855 
      3 O          27.1597   -2.4487    2.0763 O.2       0 UNK        -0.5197 
      4 N          26.4632   -3.3712    0.1367 N.am      1 UNK        -0.4892 
      5 CA         27.2969   -2.5731   -0.7703 C.3       1 UNK         0.0835 
      6 C6         27.3978   -3.2098   -2.1811 C.3       12 UNK        -0.0855 
      7 S7         27.9231   -4.9585   -2.1354 S.3       12 UNK        -0.2931 
      8 C8         29.7406   -4.8261   -2.2555 C.3       12 UNK         0.0378 
      9 C9         30.2344   -4.4088   -3.6374 C.ar      12 UNK        -0.0802 
     10 C10        31.2549   -3.4588   -3.7574 C.ar      12 UNK        -0.0944 
     11 C11        31.7413   -3.0956   -5.0165 C.ar      12 UNK        -0.0787 
     12 C12        31.1697   -3.6603   -6.1593 C.ar      12 UNK        -0.0862 
     13 C13        30.1404   -4.6013   -6.0627 C.ar      12 UNK        -0.0733 
     14 C14        29.7082   -4.9990   -4.7926 C.ar      12 UNK        -0.0832 
     15 C15        29.5586   -5.1809   -7.3542 C.3       12 UNK         0.0240 
     16 S16        27.8450   -5.8264   -7.2792 S.3       12 UNK        -0.2522 
     17 C17        26.8565   -4.5150   -6.4774 C.3       12 UNK        -0.0967 
     18 CA         26.5328   -3.2845   -7.3653 C.3       5 UNK         0.0660 
     19 N          25.2592   -2.6801   -6.9586 N.am      5 UNK        -0.4015 
     20 C          24.7142   -1.5558   -7.4420 C.2       4 UNK         0.4946 
     21 O          25.1780   -0.9111   -8.3823 O.2       4 UNK        -0.5353 
     22 CA         23.4799   -1.0106   -6.7036 C.3       4 UNK         0.0277 
     23 CB         22.6656   -2.0954   -5.9618 C.3       4 UNK        -0.1981 
     24 N          23.8381    0.0830   -5.7893 N.am      4 UNK        -0.4209 
     25 C          24.7115    0.0407   -4.7703 C.2       3 UNK         0.4942 
     26 O          25.3837   -0.9543   -4.4786 O.2       3 UNK        -0.5208 
     27 CA         24.8743    1.3358   -3.9579 C.3       3 UNK         0.0250 
     28 CB         23.5237    1.9176   -3.4970 C.3       3 UNK        -0.1990 
     29 N          25.6991    1.0609   -2.7865 N.am      3 UNK        -0.4232 
     30 C          26.6341    1.8543   -2.2607 C.2       2 UNK         0.4993 
     31 O          26.8831    2.9828   -2.6860 O.2       2 UNK        -0.5286 
     32 CA         27.4560    1.3083   -1.0737 C.3       2 UNK         0.0209 
     33 CB         26.8802    1.8179    0.2628 C.3       2 UNK        -0.1931 
     34 N          27.6659   -0.1535   -1.0339 N.am      2 UNK        -0.4546 
     35 C          26.7600   -1.1287   -0.8596 C.2       1 UNK         0.5154 
     36 O          25.5435   -0.9307   -0.8010 O.2       1 UNK        -0.5181 
     37 C          27.6856   -2.2611   -7.3195 C.2       5 UNK         0.5014 
     38 O          28.4166   -2.1114   -8.2996 O.2       5 UNK        -0.5248 
     39 N          27.7912   -1.5395   -6.1944 N.am      6 UNK        -0.4434 
     40 CA         28.8271   -0.5337   -5.9745 C.3       6 UNK         0.0363 
     41 CB         28.9186   -0.1970   -4.4805 C.3       6 UNK        -0.1936 
     42 C          28.6336    0.7332   -6.8183 C.2       6 UNK         0.5081 
     43 O          29.6258    1.3578   -7.1900 O.2       6 UNK        -0.5248 
     44 N          27.3773    1.0735   -7.1397 N.am      7 UNK        -0.4718 
     45 CA         27.0372    2.1790   -8.0381 C.3       7 UNK         0.0273 
     46 CB         25.5555    2.5568   -7.8805 C.3       7 UNK        -0.1935 
     47 C          27.3699    1.8436   -9.5000 C.2       7 UNK         0.5018 
     48 O          27.9023    2.6994  -10.2060 O.2       7 UNK        -0.5186 
     49 N          27.0863    0.5991   -9.9125 N.am      8 UNK        -0.4240 
     50 CA         27.4378    0.0529  -11.2248 C.3       8 UNK         0.0235 
     51 CB         26.7467   -1.3062  -11.4215 C.3       8 UNK        -0.2000 
     52 C          28.9579   -0.0680  -11.4247 C.2       8 UNK         0.4941 
     53 O          29.4564    0.2990  -12.4895 O.2       8 UNK        -0.5273 
     54 N          29.6672   -0.5558  -10.3963 N.am      9 UNK        -0.4262 
     55 CA         31.1304   -0.6453  -10.3704 C.3       9 UNK         0.0264 
     56 CB         31.5578   -1.5710   -9.2223 C.3       9 UNK        -0.1955 
     57 C          31.8288    0.7200  -10.2351 C.2       9 UNK         0.5031 
     58 O          32.9675    0.8536  -10.6852 O.2       9 UNK        -0.5390 
     59 N          31.1472    1.6879   -9.6043 N.am      10 UNK        -0.4204 
     60 CA         31.6115    3.0333   -9.2476 C.3       10 UNK         0.0237 
     61 CB         31.9008    3.8770  -10.5076 C.3       10 UNK        -0.1985 
     62 C          32.7804    3.0116   -8.2416 C.2       10 UNK         0.4970 
     63 O          33.6760    3.8551   -8.3226 O.2       10 UNK        -0.4914 
     64 N          32.7540    2.0437   -7.3166 N.am      11 UNK        -0.4285 
     65 CA         33.7366    1.8895   -6.2355 C.3       11 UNK         0.1007 
     66 C          33.4672    2.8385   -5.0334 C.2       11 UNK         0.5703 
     67 N          34.4397    3.0007   -4.1457 N.am      11 UNK        -0.7361 
     68 O          32.3943    3.4225   -4.8876 O.2       11 UNK        -0.4986 
     69 C69        33.9010    0.4031   -5.8150 C.3       12 UNK        -0.0947 
     70 S70        32.3581   -0.4044   -5.2775 S.3       12 UNK        -0.2240 
     71 C71        32.9110   -2.1298   -5.1506 C.3       12 UNK         0.0194 
     72 H72        24.9021   -4.7808    1.5781 H         1 UNK         0.0906 
     73 H73        26.0068   -4.7396    2.9533 H         1 UNK         0.0906 
     74 H74        24.7543   -3.5056    2.7889 H         1 UNK         0.0906 
     75 H75        25.8442   -4.0297   -0.3139 H         1 UNK         0.3140 
     76 H76        28.3011   -2.5342   -0.3421 H         1 UNK         0.1085 
     77 H77        26.4313   -3.1678   -2.6884 H         1 UNK         0.0836 
     78 H78        28.0884   -2.6495   -2.8115 H         1 UNK         0.0836 
     79 H79        30.0941   -4.1335   -1.4901 H         1 UNK         0.0731 
     80 H80        30.1754   -5.7971   -2.0153 H         1 UNK         0.0731 
     81 H81        31.6901   -3.0174   -2.8711 H         1 UNK         0.1312 
     82 H82        31.5423   -3.3763   -7.1320 H         1 UNK         0.1406 
     83 H83        28.9441   -5.7577   -4.6970 H         1 UNK         0.1631 
     84 H84        29.6026   -4.4348   -8.1478 H         1 UNK         0.0717 
     85 H85        30.2077   -5.9950   -7.6786 H         1 UNK         0.0717 
     86 H86        25.9250   -5.0126   -6.2024 H         1 UNK         0.0934 
     87 H87        27.2936   -4.2220   -5.5225 H         1 UNK         0.0934 
     88 H88        26.4108   -3.6085   -8.4008 H         1 UNK         0.0739 
     89 H89        24.8105   -3.0926   -6.1542 H         1 UNK         0.3093 
     90 H90        22.8330   -0.5813   -7.4706 H         1 UNK         0.0818 
     91 H91        21.7298   -1.6838   -5.5833 H         1 UNK         0.0819 
     92 H92        22.4030   -2.9174   -6.6294 H         1 UNK         0.0819 
     93 H93        23.2010   -2.5154   -5.1097 H         1 UNK         0.0819 
     94 H94        23.3586    0.9555   -5.9620 H         1 UNK         0.3041 
     95 H95        25.3829    2.0592   -4.5975 H         1 UNK         0.0784 
     96 H96        22.9092    2.2320   -4.3409 H         1 UNK         0.0793 
     97 H97        22.9492    1.1901   -2.9217 H         1 UNK         0.0793 
     98 H98        23.6684    2.7964   -2.8681 H         1 UNK         0.0793 
     99 H99        25.5620    0.1467   -2.3619 H         1 UNK         0.3024 
    100 H100       28.4521    1.7414   -1.1824 H         1 UNK         0.1171 
    101 H101       27.5035    1.5161    1.1045 H         1 UNK         0.0786 
    102 H102       26.8270    2.9075    0.2739 H         1 UNK         0.0786 
    103 H103       25.8715    1.4442    0.4412 H         1 UNK         0.0786 
    104 H104       28.6347   -0.4321   -1.1099 H         1 UNK         0.2977 
    105 H105       27.0916   -1.6489   -5.4675 H         1 UNK         0.3127 
    106 H106       29.7763   -0.9735   -6.2809 H         1 UNK         0.0770 
    107 H107       27.9432    0.0434   -4.0653 H         1 UNK         0.0814 
    108 H108       29.5725    0.6590   -4.3064 H         1 UNK         0.0814 
    109 H109       29.3338   -1.0330   -3.9195 H         1 UNK         0.0814 
    110 H110       26.6264    0.4615   -6.8566 H         1 UNK         0.2983 
    111 H111       27.6375    3.0468   -7.7545 H         1 UNK         0.0947 
    112 H112       25.2962    3.3850   -8.5414 H         1 UNK         0.0806 
    113 H113       25.3334    2.8786   -6.8639 H         1 UNK         0.0806 
    114 H114       24.8925    1.7279   -8.1279 H         1 UNK         0.0806 
    115 H115       26.5828   -0.0196   -9.2802 H         1 UNK         0.3000 
    116 H116       27.0575    0.7409  -11.9830 H         1 UNK         0.0850 
    117 H117       26.9753   -1.7223  -12.4035 H         1 UNK         0.0810 
    118 H118       25.6628   -1.2120  -11.3522 H         1 UNK         0.0810 
    119 H119       27.0647   -2.0348  -10.6750 H         1 UNK         0.0810 
    120 H120       29.1692   -0.9238   -9.5878 H         1 UNK         0.3040 
    121 H121       31.4604   -1.0928  -11.3104 H         1 UNK         0.0766 
    122 H122       31.1331   -2.5673   -9.3450 H         1 UNK         0.0812 
    123 H123       31.2366   -1.1836   -8.2548 H         1 UNK         0.0812 
    124 H124       32.6426   -1.6801   -9.1871 H         1 UNK         0.0812 
    125 H125       30.2509    1.4383   -9.2021 H         1 UNK         0.3205 
    126 H126       30.7780    3.5047   -8.7246 H         1 UNK         0.0754 
    127 H127       32.1020    4.9161  -10.2444 H         1 UNK         0.0769 
    128 H128       31.0483    3.8750  -11.1873 H         1 UNK         0.0769 
    129 H129       32.7681    3.5068  -11.0548 H         1 UNK         0.0769 
    130 H130       31.9339    1.4540   -7.2565 H         1 UNK         0.2981 
    131 H131       34.7031    2.1988   -6.6385 H         1 UNK         0.0541 
    132 H132       34.2843    3.6087   -3.3569 H         1 UNK         0.3459 
    133 H133       35.3250    2.5299   -4.2480 H         1 UNK         0.3459 
    134 H134       34.6429    0.3021   -5.0212 H         1 UNK         0.0612 
    135 H135       34.2964   -0.1597   -6.6620 H         1 UNK         0.0612 
    136 H136       33.4980   -2.3875   -6.0336 H         1 UNK         0.0624 
    137 H137       33.5822   -2.2283   -4.2962 H         1 UNK         0.0624 
@<TRIPOS>BOND
     1    1    2 1    
     2    1   72 1    
     3    1   73 1    
     4    1   74 1    
     5    2    3 2    
     6    2    4 am   BACKBONE|DICT|INTERRES
     7    4    5 1    
     8    4   75 1    
     9    5    6 1    
    10    5   35 1    
    11    5   76 1    
    12    6    7 1    
    13    6   77 1    
    14    6   78 1    
    15    7    8 1    
    16    8    9 1    
    17    8   79 1    
    18    8   80 1    
    19    9   10 ar   
    20    9   14 ar   
    21   10   11 ar   
    22   10   81 1    
    23   11   12 ar   
    24   11   71 1    
    25   12   13 ar   
    26   12   82 1    
    27   13   14 ar   
    28   13   15 1    
    29   14   83 1    
    30   15   16 1    
    31   15   84 1    
    32   15   85 1    
    33   16   17 1    
    34   17   18 1    
    35   17   86 1    
    36   17   87 1    
    37   18   19 1    
    38   18   37 1    
    39   18   88 1    
    40   19   20 am   BACKBONE|DICT|INTERRES
    41   19   89 1    
    42   20   21 2    
    43   20   22 1    
    44   22   23 1    
    45   22   24 1    
    46   22   90 1    
    47   23   91 1    
    48   23   92 1    
    49   23   93 1    
    50   24   25 am   BACKBONE|DICT|INTERRES
    51   24   94 1    
    52   25   26 2    
    53   25   27 1    
    54   27   28 1    
    55   27   29 1    
    56   27   95 1    
    57   28   96 1    
    58   28   97 1    
    59   28   98 1    
    60   29   30 am   BACKBONE|DICT|INTERRES
    61   29   99 1    
    62   30   31 2    
    63   30   32 1    
    64   32   33 1    
    65   32   34 1    
    66   32  100 1    
    67   33  101 1    
    68   33  102 1    
    69   33  103 1    
    70   34   35 am   BACKBONE|DICT|INTERRES
    71   34  104 1    
    72   35   36 2    
    73   37   38 2    
    74   37   39 am   BACKBONE|DICT|INTERRES
    75   39   40 1    
    76   39  105 1    
    77   40   41 1    
    78   40   42 1    
    79   40  106 1    
    80   41  107 1    
    81   41  108 1    
    82   41  109 1    
    83   42   43 2    
    84   42   44 am   BACKBONE|DICT|INTERRES
    85   44   45 1    
    86   44  110 1    
    87   45   46 1    
    88   45   47 1    
    89   45  111 1    
    90   46  112 1    
    91   46  113 1    
    92   46  114 1    
    93   47   48 2    
    94   47   49 am   BACKBONE|DICT|INTERRES
    95   49   50 1    
    96   49  115 1    
    97   50   51 1    
    98   50   52 1    
    99   50  116 1    
   100   51  117 1    
   101   51  118 1    
   102   51  119 1    
   103   52   53 2    
   104   52   54 am   BACKBONE|DICT|INTERRES
   105   54   55 1    
   106   54  120 1    
   107   55   56 1    
   108   55   57 1    
   109   55  121 1    
   110   56  122 1    
   111   56  123 1    
   112   56  124 1    
   113   57   58 2    
   114   57   59 am   BACKBONE|DICT|INTERRES
   115   59   60 1    
   116   59  125 1    
   117   60   61 1    
   118   60   62 1    
   119   60  126 1    
   120   61  127 1    
   121   61  128 1    
   122   61  129 1    
   123   62   63 2    
   124   62   64 am   BACKBONE|DICT|INTERRES
   125   64   65 1    
   126   64  130 1    
   127   65   66 1    
   128   65   69 1    
   129   65  131 1    
   130   66   67 am   BACKBONE|DICT|INTERRES
   131   66   68 2    
   132   67  132 1    
   133   67  133 1    
   134   69   70 1    
   135   69  134 1    
   136   69  135 1    
   137   70   71 1    
   138   71  136 1    
   139   71  137 1    
@<TRIPOS>SUBSTRUCTURE
     1 UNK         1 GROUP             0       ****    0 ROOT    
