@<TRIPOS>MOLECULE
3R137
137   139    1
SMALL
USER_CHARGES


@<TRIPOS>ATOM
      1 CA         24.2733   -5.9849   -4.0713 C.3       0 UNK        -0.2020 
      2 C          24.8506   -5.1593   -2.9316 C.2       0 UNK         0.4855 
      3 O          24.1230   -4.3853   -2.3077 O.2       0 UNK        -0.5197 
      4 N          26.1539   -5.3177   -2.6600 N.am      1 UNK        -0.4892 
      5 CA         26.9158   -4.6005   -1.6300 C.3       1 UNK         0.0835 
      6 C6         28.3800   -5.1038   -1.5858 C.3       12 UNK        -0.0855 
      7 S7         29.3592   -4.3888   -0.2169 S.3       12 UNK        -0.2931 
      8 C8         31.0278   -4.2794   -0.9487 C.3       12 UNK         0.0378 
      9 C9         31.0779   -3.3681   -2.1688 C.ar      12 UNK        -0.0802 
     10 C10        31.2669   -3.9097   -3.4433 C.ar      12 UNK        -0.0944 
     11 C11        31.3014   -3.0842   -4.5702 C.ar      12 UNK        -0.0787 
     12 C12        31.1345   -1.7034   -4.4190 C.ar      12 UNK        -0.0862 
     13 C13        30.9505   -1.1475   -3.1481 C.ar      12 UNK        -0.0733 
     14 C14        30.9359   -1.9851   -2.0268 C.ar      12 UNK        -0.0832 
     15 C15        30.7545    0.3533   -2.9804 C.3       12 UNK         0.0240 
     16 S16        29.1036    0.7102   -2.3025 S.3       12 UNK        -0.2522 
     17 C17        28.4985    2.0922   -3.3290 C.3       12 UNK        -0.0967 
     18 CA         28.2807    1.7585   -4.8296 C.3       5 UNK         0.0660 
     19 N          27.7038    0.4286   -5.0472 N.am      5 UNK        -0.4015 
     20 C          27.6064   -0.1796   -6.2368 C.2       4 UNK         0.4946 
     21 O          28.0177    0.3106   -7.2886 O.2       4 UNK        -0.5353 
     22 CA         26.8589   -1.5202   -6.2771 C.3       4 UNK         0.0277 
     23 CB         27.8404   -2.6935   -6.1362 C.3       4 UNK        -0.1981 
     24 N          25.8073   -1.6070   -5.2575 N.am      4 UNK        -0.4209 
     25 C          24.6938   -0.8553   -5.2668 C.2       3 UNK         0.4942 
     26 O          24.4532   -0.0170   -6.1354 O.2       3 UNK        -0.5208 
     27 CA         23.7068   -1.0153   -4.0985 C.3       3 UNK         0.0250 
     28 CB         22.6702   -2.1039   -4.4129 C.3       3 UNK        -0.1990 
     29 N          24.3713   -1.3068   -2.8268 N.am      3 UNK        -0.4232 
     30 C          25.1669   -0.4359   -2.1855 C.2       2 UNK         0.4993 
     31 O          25.3528    0.7199   -2.5671 O.2       2 UNK        -0.5286 
     32 CA         25.9089   -0.9348   -0.9309 C.3       2 UNK         0.0209 
     33 CB         25.1410   -0.5336    0.3386 C.3       2 UNK        -0.1931 
     34 N          26.1687   -2.3784   -0.9018 N.am      2 UNK        -0.4546 
     35 C          26.8199   -3.0748   -1.8453 C.2       1 UNK         0.5154 
     36 O          27.2687   -2.5778   -2.8791 O.2       1 UNK        -0.5181 
     37 C          27.4677    2.8820   -5.5130 C.2       5 UNK         0.5014 
     38 O          28.0286    3.9466   -5.7728 O.2       5 UNK        -0.5248 
     39 N          26.1794    2.6343   -5.7911 N.am      6 UNK        -0.4434 
     40 CA         25.3061    3.5274   -6.5481 C.3       6 UNK         0.0363 
     41 CB         23.9140    3.5553   -5.8946 C.3       6 UNK        -0.1936 
     42 C          25.2077    3.0880   -8.0168 C.2       6 UNK         0.5081 
     43 O          25.3355    3.9303   -8.9052 O.2       6 UNK        -0.5248 
     44 N          24.9561    1.7909   -8.2492 N.am      7 UNK        -0.4718 
     45 CA         24.6830    1.2242   -9.5724 C.3       7 UNK         0.0273 
     46 CB         24.0669   -0.1756   -9.4147 C.3       7 UNK        -0.1935 
     47 C          25.9087    1.1739  -10.4973 C.2       7 UNK         0.5018 
     48 O          25.7800    1.5090  -11.6758 O.2       7 UNK        -0.5186 
     49 N          27.0592    0.7482   -9.9609 N.am      8 UNK        -0.4240 
     50 CA         28.3255    0.6579  -10.6910 C.3       8 UNK         0.0235 
     51 CB         29.0009   -0.6938  -10.3975 C.3       8 UNK        -0.2000 
     52 C          29.2566    1.8172  -10.3176 C.2       8 UNK         0.4941 
     53 O          29.9093    2.3690  -11.2038 O.2       8 UNK        -0.5273 
     54 N          29.3045    2.1535   -9.0182 N.am      9 UNK        -0.4262 
     55 CA         30.1545    3.1808   -8.3982 C.3       9 UNK         0.0264 
     56 CB         29.7539    4.5933   -8.8732 C.3       9 UNK        -0.1955 
     57 C          31.6636    2.8956   -8.5412 C.2       9 UNK         0.5031 
     58 O          32.4726    3.8253   -8.5661 O.2       9 UNK        -0.5390 
     59 N          32.0105    1.6076   -8.6127 N.am      10 UNK        -0.4204 
     60 CA         33.3508    1.0521   -8.7394 C.3       10 UNK         0.0237 
     61 CB         33.8682    1.2327  -10.1800 C.3       10 UNK        -0.1985 
     62 C          33.2623   -0.4316   -8.3645 C.2       10 UNK         0.4970 
     63 O          32.1571   -0.9800   -8.3121 O.2       10 UNK        -0.4914 
     64 N          34.4178   -1.0540   -8.1229 N.am      11 UNK        -0.4285 
     65 CA         34.5495   -2.4774   -7.7964 C.3       11 UNK         0.1007 
     66 C          35.9571   -3.0119   -8.1733 C.2       11 UNK         0.5703 
     67 N          36.1831   -4.3116   -8.0450 N.am      11 UNK        -0.7361 
     68 O          36.8463   -2.2633   -8.5784 O.2       11 UNK        -0.4986 
     69 C69        34.1494   -2.7808   -6.3218 C.3       12 UNK        -0.0947 
     70 S70        33.1961   -4.3282   -6.1742 S.3       12 UNK        -0.2240 
     71 C71        31.5019   -3.6963   -5.9494 C.3       12 UNK         0.0194 
     72 H72        24.0340   -5.3434   -4.9185 H         1 UNK         0.0906 
     73 H73        24.9689   -6.7518   -4.4116 H         1 UNK         0.0906 
     74 H74        23.3577   -6.4804   -3.7493 H         1 UNK         0.0906 
     75 H75        26.6937   -5.9536   -3.2296 H         1 UNK         0.3140 
     76 H76        26.4531   -4.8431   -0.6710 H         1 UNK         0.1085 
     77 H77        28.8647   -4.9042   -2.5417 H         1 UNK         0.0836 
     78 H78        28.3957   -6.1882   -1.4648 H         1 UNK         0.0836 
     79 H79        31.3705   -5.2841   -1.2012 H         1 UNK         0.0731 
     80 H80        31.7196   -3.9035   -0.1936 H         1 UNK         0.0731 
     81 H81        31.3854   -4.9780   -3.5635 H         1 UNK         0.1312 
     82 H82        31.1458   -1.0646   -5.2919 H         1 UNK         0.1406 
     83 H83        30.7833   -1.5617   -1.0433 H         1 UNK         0.1631 
     84 H84        30.8989    0.8689   -3.9297 H         1 UNK         0.0717 
     85 H85        31.5116    0.7455   -2.3002 H         1 UNK         0.0717 
     86 H86        27.5611    2.4203   -2.8742 H         1 UNK         0.0934 
     87 H87        29.1884    2.9320   -3.2255 H         1 UNK         0.0934 
     88 H88        29.2582    1.7519   -5.3147 H         1 UNK         0.0739 
     89 H89        27.3583   -0.0460   -4.2236 H         1 UNK         0.3093 
     90 H90        26.3813   -1.5996   -7.2553 H         1 UNK         0.0818 
     91 H91        28.3948   -2.6499   -5.1987 H         1 UNK         0.0819 
     92 H92        27.3250   -3.6530   -6.1770 H         1 UNK         0.0819 
     93 H93        28.5736   -2.6831   -6.9439 H         1 UNK         0.0819 
     94 H94        26.0043   -2.1963   -4.4550 H         1 UNK         0.3041 
     95 H95        23.1759   -0.0673   -3.9867 H         1 UNK         0.0784 
     96 H96        22.1176   -1.8627   -5.3221 H         1 UNK         0.0793 
     97 H97        23.1379   -3.0759   -4.5660 H         1 UNK         0.0793 
     98 H98        21.9421   -2.2049   -3.6078 H         1 UNK         0.0793 
     99 H99        24.2788   -2.2495   -2.4621 H         1 UNK         0.3024 
    100 H100       26.8777   -0.4347   -0.9134 H         1 UNK         0.1171 
    101 H101       25.7045   -0.7793    1.2389 H         1 UNK         0.0786 
    102 H102       24.9560    0.5415    0.3591 H         1 UNK         0.0786 
    103 H103       24.1727   -1.0323    0.3992 H         1 UNK         0.0786 
    104 H104       25.8005   -2.8792   -0.1059 H         1 UNK         0.2977 
    105 H105       25.7965    1.7295   -5.5491 H         1 UNK         0.3127 
    106 H106       25.7019    4.5453   -6.5298 H         1 UNK         0.0770 
    107 H107       23.4527    2.5672   -5.8705 H         1 UNK         0.0814 
    108 H108       23.2405    4.2166   -6.4413 H         1 UNK         0.0814 
    109 H109       23.9673    3.9226   -4.8696 H         1 UNK         0.0814 
    110 H110       24.8260    1.1628   -7.4578 H         1 UNK         0.2983 
    111 H111       23.9393    1.8617  -10.0561 H         1 UNK         0.0947 
    112 H112       23.8190   -0.6056  -10.3861 H         1 UNK         0.0806 
    113 H113       23.1463   -0.1397   -8.8318 H         1 UNK         0.0806 
    114 H114       24.7489   -0.8650   -8.9168 H         1 UNK         0.0806 
    115 H115       27.0946    0.5321   -8.9693 H         1 UNK         0.3000 
    116 H116       28.1476    0.7111  -11.7674 H         1 UNK         0.0850 
    117 H117       29.9388   -0.7870  -10.9469 H         1 UNK         0.0810 
    118 H118       28.3649   -1.5260  -10.6990 H         1 UNK         0.0810 
    119 H119       29.2342   -0.8194   -9.3398 H         1 UNK         0.0810 
    120 H120       28.7641    1.5833   -8.3692 H         1 UNK         0.3040 
    121 H121       29.9568    3.1279   -7.3287 H         1 UNK         0.0766 
    122 H122       28.6870    4.7676   -8.7316 H         1 UNK         0.0812 
    123 H123       29.9850    4.7484   -9.9273 H         1 UNK         0.0812 
    124 H124       30.2831    5.3606   -8.3072 H         1 UNK         0.0812 
    125 H125       31.2922    0.8956   -8.5431 H         1 UNK         0.3205 
    126 H126       34.0154    1.5552   -8.0342 H         1 UNK         0.0754 
    127 H127       34.8651    0.8068  -10.2997 H         1 UNK         0.0769 
    128 H128       33.9360    2.2868  -10.4500 H         1 UNK         0.0769 
    129 H129       33.2137    0.7459  -10.9045 H         1 UNK         0.0769 
    130 H130       35.2970   -0.5659   -8.2335 H         1 UNK         0.2981 
    131 H131       33.8647   -2.9975   -8.4698 H         1 UNK         0.0541 
    132 H132       35.4626   -4.9256   -7.6965 H         1 UNK         0.3459 
    133 H133       37.0902   -4.6810   -8.2832 H         1 UNK         0.3459 
    134 H134       35.0249   -2.8446   -5.6731 H         1 UNK         0.0612 
    135 H135       33.5525   -1.9693   -5.9057 H         1 UNK         0.0612 
    136 H136       31.2746   -2.9760   -6.7363 H         1 UNK         0.0624 
    137 H137       30.7993   -4.5207   -6.0786 H         1 UNK         0.0624 
@<TRIPOS>BOND
     1    1    2 1    
     2    1   72 1    
     3    1   73 1    
     4    1   74 1    
     5    2    3 2    
     6    2    4 am   BACKBONE|DICT|INTERRES
     7    4    5 1    
     8    4   75 1    
     9    5    6 1    
    10    5   35 1    
    11    5   76 1    
    12    6    7 1    
    13    6   77 1    
    14    6   78 1    
    15    7    8 1    
    16    8    9 1    
    17    8   79 1    
    18    8   80 1    
    19    9   10 ar   
    20    9   14 ar   
    21   10   11 ar   
    22   10   81 1    
    23   11   12 ar   
    24   11   71 1    
    25   12   13 ar   
    26   12   82 1    
    27   13   14 ar   
    28   13   15 1    
    29   14   83 1    
    30   15   16 1    
    31   15   84 1    
    32   15   85 1    
    33   16   17 1    
    34   17   18 1    
    35   17   86 1    
    36   17   87 1    
    37   18   19 1    
    38   18   37 1    
    39   18   88 1    
    40   19   20 am   BACKBONE|DICT|INTERRES
    41   19   89 1    
    42   20   21 2    
    43   20   22 1    
    44   22   23 1    
    45   22   24 1    
    46   22   90 1    
    47   23   91 1    
    48   23   92 1    
    49   23   93 1    
    50   24   25 am   BACKBONE|DICT|INTERRES
    51   24   94 1    
    52   25   26 2    
    53   25   27 1    
    54   27   28 1    
    55   27   29 1    
    56   27   95 1    
    57   28   96 1    
    58   28   97 1    
    59   28   98 1    
    60   29   30 am   BACKBONE|DICT|INTERRES
    61   29   99 1    
    62   30   31 2    
    63   30   32 1    
    64   32   33 1    
    65   32   34 1    
    66   32  100 1    
    67   33  101 1    
    68   33  102 1    
    69   33  103 1    
    70   34   35 am   BACKBONE|DICT|INTERRES
    71   34  104 1    
    72   35   36 2    
    73   37   38 2    
    74   37   39 am   BACKBONE|DICT|INTERRES
    75   39   40 1    
    76   39  105 1    
    77   40   41 1    
    78   40   42 1    
    79   40  106 1    
    80   41  107 1    
    81   41  108 1    
    82   41  109 1    
    83   42   43 2    
    84   42   44 am   BACKBONE|DICT|INTERRES
    85   44   45 1    
    86   44  110 1    
    87   45   46 1    
    88   45   47 1    
    89   45  111 1    
    90   46  112 1    
    91   46  113 1    
    92   46  114 1    
    93   47   48 2    
    94   47   49 am   BACKBONE|DICT|INTERRES
    95   49   50 1    
    96   49  115 1    
    97   50   51 1    
    98   50   52 1    
    99   50  116 1    
   100   51  117 1    
   101   51  118 1    
   102   51  119 1    
   103   52   53 2    
   104   52   54 am   BACKBONE|DICT|INTERRES
   105   54   55 1    
   106   54  120 1    
   107   55   56 1    
   108   55   57 1    
   109   55  121 1    
   110   56  122 1    
   111   56  123 1    
   112   56  124 1    
   113   57   58 2    
   114   57   59 am   BACKBONE|DICT|INTERRES
   115   59   60 1    
   116   59  125 1    
   117   60   61 1    
   118   60   62 1    
   119   60  126 1    
   120   61  127 1    
   121   61  128 1    
   122   61  129 1    
   123   62   63 2    
   124   62   64 am   BACKBONE|DICT|INTERRES
   125   64   65 1    
   126   64  130 1    
   127   65   66 1    
   128   65   69 1    
   129   65  131 1    
   130   66   67 am   BACKBONE|DICT|INTERRES
   131   66   68 2    
   132   67  132 1    
   133   67  133 1    
   134   69   70 1    
   135   69  134 1    
   136   69  135 1    
   137   70   71 1    
   138   71  136 1    
   139   71  137 1    
@<TRIPOS>SUBSTRUCTURE
     1 UNK         1 GROUP             0       ****    0 ROOT    
