@<TRIPOS>MOLECULE
3R137
137   139    1
SMALL
USER_CHARGES


@<TRIPOS>ATOM
      1 CA         26.8182   -6.6172   -5.8668 C.3       0 UNK        -0.2020 
      2 C          26.7695   -5.9871   -4.4834 C.2       0 UNK         0.4855 
      3 O          25.6855   -5.8369   -3.9192 O.2       0 UNK        -0.5197 
      4 N          27.9340   -5.6023   -3.9427 N.am      1 UNK        -0.4892 
      5 CA         28.1142   -4.9546   -2.6369 C.3       1 UNK         0.0835 
      6 C6         29.6180   -4.7205   -2.3495 C.3       12 UNK        -0.0855 
      7 S7         29.9483   -4.3972   -0.5862 S.3       12 UNK        -0.2931 
      8 C8         31.4556   -3.3751   -0.6837 C.3       12 UNK         0.0378 
      9 C9         31.2051   -1.9953   -1.2826 C.ar      12 UNK        -0.0802 
     10 C10        31.9242   -1.5714   -2.4061 C.ar      12 UNK        -0.0944 
     11 C11        31.7268   -0.2902   -2.9295 C.ar      12 UNK        -0.0787 
     12 C12        30.8092    0.5683   -2.3216 C.ar      12 UNK        -0.0862 
     13 C13        30.0575    0.1482   -1.2200 C.ar      12 UNK        -0.0733 
     14 C14        30.2734   -1.1307   -0.6975 C.ar      12 UNK        -0.0832 
     15 C15        29.0184    1.0629   -0.5757 C.3       12 UNK         0.0240 
     16 S16        28.0606    2.0652   -1.7670 S.3       12 UNK        -0.2522 
     17 C17        27.3004    0.7910   -2.8324 C.3       12 UNK        -0.0967 
     18 CA         27.7773    0.8494   -4.3099 C.3       5 UNK         0.0660 
     19 N          27.5512   -0.4362   -4.9759 N.am      5 UNK        -0.4015 
     20 C          27.8169   -0.7651   -6.2492 C.2       4 UNK         0.4946 
     21 O          28.3187   -0.0109   -7.0814 O.2       4 UNK        -0.5353 
     22 CA         27.4367   -2.1909   -6.6750 C.3       4 UNK         0.0277 
     23 CB         28.6258   -3.1433   -6.4730 C.3       4 UNK        -0.1981 
     24 N          26.2676   -2.6973   -5.9511 N.am      4 UNK        -0.4209 
     25 C          25.0015   -2.3297   -6.1992 C.2       3 UNK         0.4942 
     26 O          24.6783   -1.5648   -7.1075 O.2       3 UNK        -0.5208 
     27 CA         23.9108   -2.8938   -5.2715 C.3       3 UNK         0.0250 
     28 CB         23.3247   -4.1921   -5.8489 C.3       3 UNK        -0.1990 
     29 N          24.4013   -3.1334   -3.9110 N.am      3 UNK        -0.4232 
     30 C          24.5900   -2.1597   -3.0067 C.2       2 UNK         0.4993 
     31 O          24.2982   -0.9806   -3.2061 O.2       2 UNK        -0.5286 
     32 CA         25.2505   -2.5480   -1.6691 C.3       2 UNK         0.0209 
     33 CB         24.1805   -2.8942   -0.6216 C.3       2 UNK        -0.1931 
     34 N          26.2060   -3.6568   -1.7742 N.am      2 UNK        -0.4546 
     35 C          27.2985   -3.6475   -2.5503 C.2       1 UNK         0.5154 
     36 O          27.6237   -2.6843   -3.2445 O.2       1 UNK        -0.5181 
     37 C          27.1542    2.0551   -5.0456 C.2       5 UNK         0.5014 
     38 O          27.7354    3.1406   -5.0053 O.2       5 UNK        -0.5248 
     39 N          26.0040    1.8510   -5.7088 N.am      6 UNK        -0.4434 
     40 CA         25.2709    2.8439   -6.5015 C.3       6 UNK         0.0363 
     41 CB         24.0257    2.1752   -7.1083 C.3       6 UNK        -0.1936 
     42 C          26.1549    3.4732   -7.5937 C.2       6 UNK         0.5081 
     43 O          26.4329    2.8237   -8.6020 O.2       6 UNK        -0.5248 
     44 N          26.6477    4.6925   -7.3237 N.am      7 UNK        -0.4718 
     45 CA         27.6428    5.4496   -8.1023 C.3       7 UNK         0.0273 
     46 CB         27.0390    5.8994   -9.4499 C.3       7 UNK        -0.1935 
     47 C          28.9921    4.7157   -8.2869 C.2       7 UNK         0.5018 
     48 O          29.7434    5.0539   -9.2029 O.2       7 UNK        -0.5186 
     49 N          29.2567    3.7087   -7.4379 N.am      8 UNK        -0.4240 
     50 CA         30.3317    2.7121   -7.5228 C.3       8 UNK         0.0235 
     51 CB         31.6937    3.3509   -7.1841 C.3       8 UNK        -0.2000 
     52 C          30.3548    1.9301   -8.8566 C.2       8 UNK         0.4941 
     53 O          31.4205    1.4659   -9.2713 O.2       8 UNK        -0.5273 
     54 N          29.1893    1.7969   -9.5115 N.am      9 UNK        -0.4262 
     55 CA         29.0238    1.3176  -10.8882 C.3       9 UNK         0.0264 
     56 CB         27.5417    1.4158  -11.2832 C.3       9 UNK        -0.1955 
     57 C          29.5591   -0.0938  -11.1811 C.2       9 UNK         0.5031 
     58 O          29.8580   -0.3793  -12.3424 O.2       9 UNK        -0.5390 
     59 N          29.6783   -0.9408  -10.1519 N.am      10 UNK        -0.4204 
     60 CA         30.2380   -2.2893  -10.2600 C.3       10 UNK         0.0237 
     61 CB         29.0969   -3.3252  -10.2452 C.3       10 UNK        -0.1985 
     62 C          31.3138   -2.5570   -9.1942 C.2       10 UNK         0.4970 
     63 O          31.5382   -3.7206   -8.8566 O.2       10 UNK        -0.4914 
     64 N          31.9661   -1.5040   -8.6822 N.am      11 UNK        -0.4285 
     65 CA         33.0352   -1.6180   -7.6752 C.3       11 UNK         0.1007 
     66 C          34.1585   -0.5497   -7.7928 C.2       11 UNK         0.5703 
     67 N          33.9909    0.5327   -8.5433 N.am      11 UNK        -0.7361 
     68 O          35.2266   -0.7247   -7.2109 O.2       11 UNK        -0.4986 
     69 C69        32.4787   -1.7636   -6.2320 C.3       12 UNK        -0.0947 
     70 S70        31.5762   -0.2808   -5.6705 S.3       12 UNK        -0.2240 
     71 C71        32.4822    0.1760   -4.1625 C.3       12 UNK         0.0194 
     72 H72        26.2915   -7.5711   -5.8625 H         1 UNK         0.0906 
     73 H73        26.3360   -5.9650   -6.5944 H         1 UNK         0.0906 
     74 H74        27.8407   -6.7979   -6.1977 H         1 UNK         0.0906 
     75 H75        28.7838   -5.7489   -4.4683 H         1 UNK         0.3140 
     76 H76        27.7306   -5.6522   -1.8892 H         1 UNK         0.1085 
     77 H77        30.0110   -3.9091   -2.9659 H         1 UNK         0.0836 
     78 H78        30.1941   -5.6068   -2.6201 H         1 UNK         0.0836 
     79 H79        32.2140   -3.9164   -1.2517 H         1 UNK         0.0731 
     80 H80        31.8588   -3.2500    0.3221 H         1 UNK         0.0731 
     81 H81        32.6384   -2.2345   -2.8747 H         1 UNK         0.1312 
     82 H82        30.6624    1.5598   -2.7270 H         1 UNK         0.1406 
     83 H83        29.7124   -1.4619    0.1661 H         1 UNK         0.1631 
     84 H84        29.5276    1.7349    0.1159 H         1 UNK         0.0717 
     85 H85        28.3151    0.4792    0.0206 H         1 UNK         0.0717 
     86 H86        27.5352   -0.1841   -2.4048 H         1 UNK         0.0934 
     87 H87        26.2146    0.8818   -2.7662 H         1 UNK         0.0934 
     88 H88        28.8583    0.9951   -4.3247 H         1 UNK         0.0739 
     89 H89        27.2701   -1.1964   -4.3630 H         1 UNK         0.3093 
     90 H90        27.1947   -2.1600   -7.7392 H         1 UNK         0.0818 
     91 H91        28.9117   -3.2290   -5.4252 H         1 UNK         0.0819 
     92 H92        28.4092   -4.1419   -6.8511 H         1 UNK         0.0819 
     93 H93        29.5024   -2.7783   -7.0053 H         1 UNK         0.0819 
     94 H94        26.4524   -3.2726   -5.1417 H         1 UNK         0.3041 
     95 H95        23.1058   -2.1568   -5.2250 H         1 UNK         0.0784 
     96 H96        22.9085   -4.0221   -6.8429 H         1 UNK         0.0793 
     97 H97        24.0778   -4.9742   -5.9422 H         1 UNK         0.0793 
     98 H98        22.5194   -4.5761   -5.2226 H         1 UNK         0.0793 
     99 H99        24.6891   -4.0818   -3.6856 H         1 UNK         0.3024 
    100 H100       25.8018   -1.6731   -1.3178 H         1 UNK         0.1171 
    101 H101       24.6259   -3.0737    0.3571 H         1 UNK         0.0786 
    102 H102       23.4686   -2.0755   -0.5058 H         1 UNK         0.0786 
    103 H103       23.6130   -3.7826   -0.9020 H         1 UNK         0.0786 
    104 H104       25.9768   -4.5004   -1.2680 H         1 UNK         0.2977 
    105 H105       25.6283    0.9136   -5.7155 H         1 UNK         0.3127 
    106 H106       24.9359    3.6310   -5.8231 H         1 UNK         0.0770 
    107 H107       24.2922    1.3353   -7.7521 H         1 UNK         0.0814 
    108 H108       23.4589    2.8833   -7.7142 H         1 UNK         0.0814 
    109 H109       23.3561    1.8024   -6.3331 H         1 UNK         0.0814 
    110 H110       26.4008    5.1048   -6.4335 H         1 UNK         0.2983 
    111 H111       27.8685    6.3462   -7.5230 H         1 UNK         0.0947 
    112 H112       27.7096    6.5819   -9.9733 H         1 UNK         0.0806 
    113 H113       26.0945    6.4243   -9.3068 H         1 UNK         0.0806 
    114 H114       26.8559    5.0531  -10.1129 H         1 UNK         0.0806 
    115 H115       28.5862    3.5479   -6.6897 H         1 UNK         0.3000 
    116 H116       30.1082    1.9787   -6.7486 H         1 UNK         0.0850 
    117 H117       32.4697    2.5902   -7.0917 H         1 UNK         0.0810 
    118 H118       31.6555    3.8861   -6.2355 H         1 UNK         0.0810 
    119 H119       32.0128    4.0522   -7.9556 H         1 UNK         0.0810 
    120 H120       28.3490    2.1546   -9.0661 H         1 UNK         0.3040 
    121 H121       29.5873    2.0022  -11.5251 H         1 UNK         0.0766 
    122 H122       27.1857    2.4449  -11.2303 H         1 UNK         0.0812 
    123 H123       26.9122    0.8101  -10.6299 H         1 UNK         0.0812 
    124 H124       27.3808    1.0721  -12.3060 H         1 UNK         0.0812 
    125 H125       29.4100   -0.6195   -9.2285 H         1 UNK         0.3205 
    126 H126       30.7627   -2.3985  -11.2112 H         1 UNK         0.0754 
    127 H127       29.4787   -4.3375  -10.3836 H         1 UNK         0.0769 
    128 H128       28.3868   -3.1392  -11.0511 H         1 UNK         0.0769 
    129 H129       28.5461   -3.3095   -9.3070 H         1 UNK         0.0769 
    130 H130       31.7507   -0.5670   -9.0028 H         1 UNK         0.2981 
    131 H131       33.5663   -2.5474   -7.8907 H         1 UNK         0.0541 
    132 H132       34.7512    1.1893   -8.6117 H         1 UNK         0.3459 
    133 H133       33.0917    0.7748   -8.9496 H         1 UNK         0.3459 
    134 H134       31.7962   -2.6122   -6.1776 H         1 UNK         0.0612 
    135 H135       33.2869   -2.0024   -5.5397 H         1 UNK         0.0612 
    136 H136       32.5917    1.2614   -4.1438 H         1 UNK         0.0624 
    137 H137       33.4959   -0.2258   -4.1717 H         1 UNK         0.0624 
@<TRIPOS>BOND
     1    1    2 1    
     2    1   72 1    
     3    1   73 1    
     4    1   74 1    
     5    2    3 2    
     6    2    4 am   BACKBONE|DICT|INTERRES
     7    4    5 1    
     8    4   75 1    
     9    5    6 1    
    10    5   35 1    
    11    5   76 1    
    12    6    7 1    
    13    6   77 1    
    14    6   78 1    
    15    7    8 1    
    16    8    9 1    
    17    8   79 1    
    18    8   80 1    
    19    9   10 ar   
    20    9   14 ar   
    21   10   11 ar   
    22   10   81 1    
    23   11   12 ar   
    24   11   71 1    
    25   12   13 ar   
    26   12   82 1    
    27   13   14 ar   
    28   13   15 1    
    29   14   83 1    
    30   15   16 1    
    31   15   84 1    
    32   15   85 1    
    33   16   17 1    
    34   17   18 1    
    35   17   86 1    
    36   17   87 1    
    37   18   19 1    
    38   18   37 1    
    39   18   88 1    
    40   19   20 am   BACKBONE|DICT|INTERRES
    41   19   89 1    
    42   20   21 2    
    43   20   22 1    
    44   22   23 1    
    45   22   24 1    
    46   22   90 1    
    47   23   91 1    
    48   23   92 1    
    49   23   93 1    
    50   24   25 am   BACKBONE|DICT|INTERRES
    51   24   94 1    
    52   25   26 2    
    53   25   27 1    
    54   27   28 1    
    55   27   29 1    
    56   27   95 1    
    57   28   96 1    
    58   28   97 1    
    59   28   98 1    
    60   29   30 am   BACKBONE|DICT|INTERRES
    61   29   99 1    
    62   30   31 2    
    63   30   32 1    
    64   32   33 1    
    65   32   34 1    
    66   32  100 1    
    67   33  101 1    
    68   33  102 1    
    69   33  103 1    
    70   34   35 am   BACKBONE|DICT|INTERRES
    71   34  104 1    
    72   35   36 2    
    73   37   38 2    
    74   37   39 am   BACKBONE|DICT|INTERRES
    75   39   40 1    
    76   39  105 1    
    77   40   41 1    
    78   40   42 1    
    79   40  106 1    
    80   41  107 1    
    81   41  108 1    
    82   41  109 1    
    83   42   43 2    
    84   42   44 am   BACKBONE|DICT|INTERRES
    85   44   45 1    
    86   44  110 1    
    87   45   46 1    
    88   45   47 1    
    89   45  111 1    
    90   46  112 1    
    91   46  113 1    
    92   46  114 1    
    93   47   48 2    
    94   47   49 am   BACKBONE|DICT|INTERRES
    95   49   50 1    
    96   49  115 1    
    97   50   51 1    
    98   50   52 1    
    99   50  116 1    
   100   51  117 1    
   101   51  118 1    
   102   51  119 1    
   103   52   53 2    
   104   52   54 am   BACKBONE|DICT|INTERRES
   105   54   55 1    
   106   54  120 1    
   107   55   56 1    
   108   55   57 1    
   109   55  121 1    
   110   56  122 1    
   111   56  123 1    
   112   56  124 1    
   113   57   58 2    
   114   57   59 am   BACKBONE|DICT|INTERRES
   115   59   60 1    
   116   59  125 1    
   117   60   61 1    
   118   60   62 1    
   119   60  126 1    
   120   61  127 1    
   121   61  128 1    
   122   61  129 1    
   123   62   63 2    
   124   62   64 am   BACKBONE|DICT|INTERRES
   125   64   65 1    
   126   64  130 1    
   127   65   66 1    
   128   65   69 1    
   129   65  131 1    
   130   66   67 am   BACKBONE|DICT|INTERRES
   131   66   68 2    
   132   67  132 1    
   133   67  133 1    
   134   69   70 1    
   135   69  134 1    
   136   69  135 1    
   137   70   71 1    
   138   71  136 1    
   139   71  137 1    
@<TRIPOS>SUBSTRUCTURE
     1 UNK         1 GROUP             0       ****    0 ROOT    
