@<TRIPOS>MOLECULE
3R137
137   139    1
SMALL
USER_CHARGES


@<TRIPOS>ATOM
      1 CA         26.1287   -6.4275   -2.6439 C.3       0 UNK        -0.2020 
      2 C          26.3725   -4.9289   -2.5676 C.2       0 UNK         0.4855 
      3 O          26.1742   -4.2325   -3.5633 O.2       0 UNK        -0.5197 
      4 N          26.7775   -4.4305   -1.3895 N.am      1 UNK        -0.4892 
      5 CA         27.1353   -3.0330   -1.0887 C.3       1 UNK         0.0835 
      6 C6         28.5124   -2.6192   -1.6629 C.3       12 UNK        -0.0855 
      7 S7         29.8895   -3.6709   -1.0869 S.3       12 UNK        -0.2931 
      8 C8         31.2677   -2.4725   -1.0361 C.3       12 UNK         0.0378 
      9 C9         31.3754   -1.6676   -2.3256 C.ar      12 UNK        -0.0802 
     10 C10        31.6278   -2.3154   -3.5377 C.ar      12 UNK        -0.0944 
     11 C11        31.6591   -1.5959   -4.7341 C.ar      12 UNK        -0.0787 
     12 C12        31.4330   -0.2165   -4.7134 C.ar      12 UNK        -0.0862 
     13 C13        31.1888    0.4488   -3.5067 C.ar      12 UNK        -0.0733 
     14 C14        31.1820   -0.2820   -2.3132 C.ar      12 UNK        -0.0832 
     15 C15        30.9475    1.9573   -3.5109 C.3       12 UNK         0.0240 
     16 S16        29.5038    2.5132   -2.5282 S.3       12 UNK        -0.2522 
     17 C17        28.1791    1.3260   -2.9423 C.3       12 UNK        -0.0967 
     18 CA         27.8141    1.2590   -4.4454 C.3       5 UNK         0.0660 
     19 N          27.4222   -0.0945   -4.8439 N.am      5 UNK        -0.4015 
     20 C          27.5191   -0.5481   -6.1008 C.2       4 UNK         0.4946 
     21 O          27.9491    0.1247   -7.0391 O.2       4 UNK        -0.5353 
     22 CA         27.0359   -1.9791   -6.3723 C.3       4 UNK         0.0277 
     23 CB         28.1579   -2.9924   -6.1024 C.3       4 UNK        -0.1981 
     24 N          25.8381   -2.3559   -5.6183 N.am      4 UNK        -0.4209 
     25 C          24.6262   -1.8143   -5.8047 C.2       3 UNK         0.4942 
     26 O          24.4194   -0.8367   -6.5222 O.2       3 UNK        -0.5208 
     27 CA         23.4519   -2.4664   -5.0659 C.3       3 UNK         0.0250 
     28 CB         23.2374   -3.9197   -5.5248 C.3       3 UNK        -0.1990 
     29 N          23.6796   -2.4313   -3.6243 N.am      3 UNK        -0.4232 
     30 C          23.1567   -1.5162   -2.7969 C.2       2 UNK         0.4993 
     31 O          22.3547   -0.6531   -3.1525 O.2       2 UNK        -0.5286 
     32 CA         23.5819   -1.5574   -1.3165 C.3       2 UNK         0.0209 
     33 CB         22.4355   -2.0950   -0.4435 C.3       2 UNK        -0.1931 
     34 N          24.7912   -2.3405   -1.0450 N.am      2 UNK        -0.4546 
     35 C          26.0189   -2.0442   -1.4923 C.2       1 UNK         0.5154 
     36 O          26.2610   -1.0885   -2.2346 O.2       1 UNK        -0.5181 
     37 C          26.7478    2.2979   -4.8447 C.2       5 UNK         0.5014 
     38 O          27.1069    3.4256   -5.1829 O.2       5 UNK        -0.5248 
     39 N          25.4661    1.8964   -4.8555 N.am      6 UNK        -0.4434 
     40 CA         24.3494    2.7119   -5.3449 C.3       6 UNK         0.0363 
     41 CB         23.0152    2.0934   -4.9025 C.3       6 UNK        -0.1936 
     42 C          24.3893    2.8911   -6.8719 C.2       6 UNK         0.5081 
     43 O          24.1308    3.9905   -7.3613 O.2       6 UNK        -0.5248 
     44 N          24.7563    1.8218   -7.5928 N.am      7 UNK        -0.4718 
     45 CA         25.0261    1.8314   -9.0344 C.3       7 UNK         0.0273 
     46 CB         25.0661    0.3801   -9.5408 C.3       7 UNK        -0.1935 
     47 C          26.3316    2.5599   -9.4100 C.2       7 UNK         0.5018 
     48 O          26.5143    2.8860  -10.5835 O.2       7 UNK        -0.5186 
     49 N          27.2059    2.7859   -8.4177 N.am      8 UNK        -0.4240 
     50 CA         28.5380    3.3904   -8.5031 C.3       8 UNK         0.0235 
     51 CB         28.4474    4.8747   -8.9173 C.3       8 UNK        -0.2000 
     52 C          29.4976    2.5666   -9.3812 C.2       8 UNK         0.4941 
     53 O          30.2125    3.1291  -10.2143 O.2       8 UNK        -0.5273 
     54 N          29.4908    1.2413   -9.1819 N.am      9 UNK        -0.4262 
     55 CA         30.3980    0.3017   -9.8402 C.3       9 UNK         0.0264 
     56 CB         29.8937   -1.1312   -9.6039 C.3       9 UNK        -0.1955 
     57 C          31.8354    0.4633   -9.3183 C.2       9 UNK         0.5031 
     58 O          32.0258    0.7178   -8.1270 O.2       9 UNK        -0.5390 
     59 N          32.8189    0.2950  -10.2115 N.am      10 UNK        -0.4204 
     60 CA         34.2445    0.3707   -9.8773 C.3       10 UNK         0.0237 
     61 CB         35.0690    0.5575  -11.1621 C.3       10 UNK        -0.1985 
     62 C          34.7339   -0.8565   -9.0899 C.2       10 UNK         0.4970 
     63 O          35.5249   -0.6916   -8.1615 O.2       10 UNK        -0.4914 
     64 N          34.2563   -2.0442   -9.4952 N.am      11 UNK        -0.4285 
     65 CA         34.5245   -3.3813   -8.9296 C.3       11 UNK         0.1007 
     66 C          36.0168   -3.7723   -8.6868 C.2       11 UNK         0.5703 
     67 N          36.9714   -3.1777   -9.3924 N.am      11 UNK        -0.7361 
     68 O          36.3169   -4.6578   -7.8890 O.2       11 UNK        -0.4986 
     69 C69        33.5479   -3.7722   -7.7816 C.3       12 UNK        -0.0947 
     70 S70        33.6519   -2.7643   -6.2629 S.3       12 UNK        -0.2240 
     71 C71        31.9020   -2.3220   -6.0470 C.3       12 UNK         0.0194 
     72 H72        25.0938   -6.6246   -2.9222 H         1 UNK         0.0906 
     73 H73        26.7752   -6.8714   -3.4004 H         1 UNK         0.0906 
     74 H74        26.3268   -6.9237   -1.6942 H         1 UNK         0.0906 
     75 H75        26.9102   -5.0709   -0.6187 H         1 UNK         0.3140 
     76 H76        27.2069   -2.9622   -0.0019 H         1 UNK         0.1085 
     77 H77        28.7303   -1.5923   -1.3675 H         1 UNK         0.0836 
     78 H78        28.4991   -2.6320   -2.7533 H         1 UNK         0.0836 
     79 H79        32.2021   -3.0090   -0.8662 H         1 UNK         0.0731 
     80 H80        31.1295   -1.8136   -0.1774 H         1 UNK         0.0731 
     81 H81        31.7784   -3.3863   -3.5517 H         1 UNK         0.1312 
     82 H82        31.4451    0.3383   -5.6416 H         1 UNK         0.1406 
     83 H83        30.9909    0.2275   -1.3784 H         1 UNK         0.1631 
     84 H84        30.8295    2.3233   -4.5319 H         1 UNK         0.0717 
     85 H85        31.8387    2.4498   -3.1200 H         1 UNK         0.0717 
     86 H86        28.5191    0.3507   -2.5988 H         1 UNK         0.0934 
     87 H87        27.3027    1.5454   -2.3289 H         1 UNK         0.0934 
     88 H88        28.7069    1.5034   -5.0226 H         1 UNK         0.0739 
     89 H89        27.0381   -0.6895   -4.1167 H         1 UNK         0.3093 
     90 H90        26.7824   -2.0370   -7.4330 H         1 UNK         0.0818 
     91 H91        28.4829   -2.9735   -5.0623 H         1 UNK         0.0819 
     92 H92        27.8400   -4.0090   -6.3343 H         1 UNK         0.0819 
     93 H93        29.0278   -2.7772   -6.7219 H         1 UNK         0.0819 
     94 H94        25.9398   -3.1228   -4.9534 H         1 UNK         0.3041 
     95 H95        22.5496   -1.9060   -5.3206 H         1 UNK         0.0784 
     96 H96        23.0882   -3.9688   -6.6043 H         1 UNK         0.0793 
     97 H97        24.0859   -4.5606   -5.2832 H         1 UNK         0.0793 
     98 H98        22.3528   -4.3517   -5.0567 H         1 UNK         0.0793 
     99 H99        24.3737   -3.0736   -3.2615 H         1 UNK         0.3024 
    100 H100       23.7841   -0.5250   -1.0216 H         1 UNK         0.1171 
    101 H101       22.6826   -2.0392    0.6168 H         1 UNK         0.0786 
    102 H102       21.5245   -1.5129   -0.5913 H         1 UNK         0.0786 
    103 H103       22.2003   -3.1332   -0.6813 H         1 UNK         0.0786 
    104 H104       24.6774   -3.1686   -0.4776 H         1 UNK         0.2977 
    105 H105       25.2526    0.9459   -4.5899 H         1 UNK         0.3127 
    106 H106       24.4293    3.7026   -4.8920 H         1 UNK         0.0770 
    107 H107       22.8750    1.0922   -5.3116 H         1 UNK         0.0814 
    108 H108       22.1740    2.7017   -5.2372 H         1 UNK         0.0814 
    109 H109       22.9510    2.0232   -3.8166 H         1 UNK         0.0814 
    110 H110       24.8538    0.9249   -7.1219 H         1 UNK         0.2983 
    111 H111       24.2057    2.3512   -9.5339 H         1 UNK         0.0947 
    112 H112       25.2261    0.3448  -10.6193 H         1 UNK         0.0806 
    113 H113       24.1297   -0.1386   -9.3345 H         1 UNK         0.0806 
    114 H114       25.8723   -0.1858   -9.0720 H         1 UNK         0.0806 
    115 H115       26.9495    2.4398   -7.5034 H         1 UNK         0.3000 
    116 H116       28.9499    3.3565   -7.4931 H         1 UNK         0.0850 
    117 H117       29.4250    5.3550   -8.8615 H         1 UNK         0.0810 
    118 H118       27.7768    5.4278   -8.2597 H         1 UNK         0.0810 
    119 H119       28.0871    4.9904   -9.9399 H         1 UNK         0.0810 
    120 H120       28.9017    0.8614   -8.4420 H         1 UNK         0.3040 
    121 H121       30.3818    0.5062  -10.9129 H         1 UNK         0.0766 
    122 H122       28.8899   -1.2689  -10.0064 H         1 UNK         0.0812 
    123 H123       29.8606   -1.3725   -8.5416 H         1 UNK         0.0812 
    124 H124       30.5419   -1.8635  -10.0867 H         1 UNK         0.0812 
    125 H125       32.5809    0.1054  -11.1748 H         1 UNK         0.3205 
    126 H126       34.4006    1.2499   -9.2478 H         1 UNK         0.0754 
    127 H127       36.1332    0.6347  -10.9340 H         1 UNK         0.0769 
    128 H128       34.7858    1.4717  -11.6844 H         1 UNK         0.0769 
    129 H129       34.9434   -0.2766  -11.8536 H         1 UNK         0.0769 
    130 H130       33.6355   -2.0423  -10.2900 H         1 UNK         0.2981 
    131 H131       34.2566   -4.0473   -9.7506 H         1 UNK         0.0541 
    132 H132       36.7438   -2.4515  -10.0517 H         1 UNK         0.3459 
    133 H133       37.9320   -3.4432   -9.2434 H         1 UNK         0.3459 
    134 H134       33.6912   -4.8165   -7.4992 H         1 UNK         0.0612 
    135 H135       32.5281   -3.7235   -8.1662 H         1 UNK         0.0612 
    136 H136       31.5816   -1.7100   -6.8904 H         1 UNK         0.0624 
    137 H137       31.2999   -3.2312   -6.0705 H         1 UNK         0.0624 
@<TRIPOS>BOND
     1    1    2 1    
     2    1   72 1    
     3    1   73 1    
     4    1   74 1    
     5    2    3 2    
     6    2    4 am   BACKBONE|DICT|INTERRES
     7    4    5 1    
     8    4   75 1    
     9    5    6 1    
    10    5   35 1    
    11    5   76 1    
    12    6    7 1    
    13    6   77 1    
    14    6   78 1    
    15    7    8 1    
    16    8    9 1    
    17    8   79 1    
    18    8   80 1    
    19    9   10 ar   
    20    9   14 ar   
    21   10   11 ar   
    22   10   81 1    
    23   11   12 ar   
    24   11   71 1    
    25   12   13 ar   
    26   12   82 1    
    27   13   14 ar   
    28   13   15 1    
    29   14   83 1    
    30   15   16 1    
    31   15   84 1    
    32   15   85 1    
    33   16   17 1    
    34   17   18 1    
    35   17   86 1    
    36   17   87 1    
    37   18   19 1    
    38   18   37 1    
    39   18   88 1    
    40   19   20 am   BACKBONE|DICT|INTERRES
    41   19   89 1    
    42   20   21 2    
    43   20   22 1    
    44   22   23 1    
    45   22   24 1    
    46   22   90 1    
    47   23   91 1    
    48   23   92 1    
    49   23   93 1    
    50   24   25 am   BACKBONE|DICT|INTERRES
    51   24   94 1    
    52   25   26 2    
    53   25   27 1    
    54   27   28 1    
    55   27   29 1    
    56   27   95 1    
    57   28   96 1    
    58   28   97 1    
    59   28   98 1    
    60   29   30 am   BACKBONE|DICT|INTERRES
    61   29   99 1    
    62   30   31 2    
    63   30   32 1    
    64   32   33 1    
    65   32   34 1    
    66   32  100 1    
    67   33  101 1    
    68   33  102 1    
    69   33  103 1    
    70   34   35 am   BACKBONE|DICT|INTERRES
    71   34  104 1    
    72   35   36 2    
    73   37   38 2    
    74   37   39 am   BACKBONE|DICT|INTERRES
    75   39   40 1    
    76   39  105 1    
    77   40   41 1    
    78   40   42 1    
    79   40  106 1    
    80   41  107 1    
    81   41  108 1    
    82   41  109 1    
    83   42   43 2    
    84   42   44 am   BACKBONE|DICT|INTERRES
    85   44   45 1    
    86   44  110 1    
    87   45   46 1    
    88   45   47 1    
    89   45  111 1    
    90   46  112 1    
    91   46  113 1    
    92   46  114 1    
    93   47   48 2    
    94   47   49 am   BACKBONE|DICT|INTERRES
    95   49   50 1    
    96   49  115 1    
    97   50   51 1    
    98   50   52 1    
    99   50  116 1    
   100   51  117 1    
   101   51  118 1    
   102   51  119 1    
   103   52   53 2    
   104   52   54 am   BACKBONE|DICT|INTERRES
   105   54   55 1    
   106   54  120 1    
   107   55   56 1    
   108   55   57 1    
   109   55  121 1    
   110   56  122 1    
   111   56  123 1    
   112   56  124 1    
   113   57   58 2    
   114   57   59 am   BACKBONE|DICT|INTERRES
   115   59   60 1    
   116   59  125 1    
   117   60   61 1    
   118   60   62 1    
   119   60  126 1    
   120   61  127 1    
   121   61  128 1    
   122   61  129 1    
   123   62   63 2    
   124   62   64 am   BACKBONE|DICT|INTERRES
   125   64   65 1    
   126   64  130 1    
   127   65   66 1    
   128   65   69 1    
   129   65  131 1    
   130   66   67 am   BACKBONE|DICT|INTERRES
   131   66   68 2    
   132   67  132 1    
   133   67  133 1    
   134   69   70 1    
   135   69  134 1    
   136   69  135 1    
   137   70   71 1    
   138   71  136 1    
   139   71  137 1    
@<TRIPOS>SUBSTRUCTURE
     1 UNK         1 GROUP             0       ****    0 ROOT    
