@<TRIPOS>MOLECULE
3R137
137   139    1
SMALL
USER_CHARGES


@<TRIPOS>ATOM
      1 CA         25.4951   -6.0206   -4.5758 C.3       0 UNK        -0.2020 
      2 C          25.4860   -5.0206   -3.4303 C.2       0 UNK         0.4855 
      3 O          24.4172   -4.5326   -3.0640 O.2       0 UNK        -0.5197 
      4 N          26.6700   -4.7077   -2.8839 N.am      1 UNK        -0.4892 
      5 CA         26.9397   -3.8189   -1.7437 C.3       1 UNK         0.0835 
      6 C6         28.4563   -3.5531   -1.5837 C.3       12 UNK        -0.0855 
      7 S7         29.5061   -5.0427   -1.5356 S.3       12 UNK        -0.2931 
      8 C8         31.1126   -4.3121   -1.0635 C.3       12 UNK         0.0378 
      9 C9         31.4672   -3.0927   -1.9081 C.ar      12 UNK        -0.0802 
     10 C10        31.9723   -3.2488   -3.2008 C.ar      12 UNK        -0.0944 
     11 C11        32.2673   -2.1307   -3.9872 C.ar      12 UNK        -0.0787 
     12 C12        32.0509   -0.8472   -3.4745 C.ar      12 UNK        -0.0862 
     13 C13        31.5415   -0.6770   -2.1816 C.ar      12 UNK        -0.0733 
     14 C14        31.2645   -1.8046   -1.4023 C.ar      12 UNK        -0.0832 
     15 C15        31.3110    0.7135   -1.5956 C.3       12 UNK         0.0240 
     16 S16        30.3675    1.8401   -2.6772 S.3       12 UNK        -0.2522 
     17 C17        28.7944    0.9503   -2.9515 C.3       12 UNK        -0.0967 
     18 CA         28.4351    0.9125   -4.4596 C.3       5 UNK         0.0660 
     19 N          27.6979   -0.2963   -4.8310 N.am      5 UNK        -0.4015 
     20 C          27.5622   -0.7200   -6.0942 C.2       4 UNK         0.4946 
     21 O          28.0313   -0.1254   -7.0666 O.2       4 UNK        -0.5353 
     22 CA         26.7399   -1.9960   -6.3204 C.3       4 UNK         0.0277 
     23 CB         27.6016   -3.2382   -6.0475 C.3       4 UNK        -0.1981 
     24 N          25.5028   -2.0561   -5.5331 N.am      4 UNK        -0.4209 
     25 C          24.4737   -1.2053   -5.6593 C.2       3 UNK         0.4942 
     26 O          24.4990   -0.2060   -6.3744 O.2       3 UNK        -0.5208 
     27 CA         23.2081   -1.5158   -4.8467 C.3       3 UNK         0.0250 
     28 CB         22.4800   -2.7491   -5.4065 C.3       3 UNK        -0.1990 
     29 N          23.5211   -1.7178   -3.4337 N.am      3 UNK        -0.4232 
     30 C          23.7400   -0.7154   -2.5699 C.2       2 UNK         0.4993 
     31 O          23.5833    0.4742   -2.8458 O.2       2 UNK        -0.5286 
     32 CA         24.2559   -1.0938   -1.1684 C.3       2 UNK         0.0209 
     33 CB         23.0824   -1.2656   -0.1904 C.3       2 UNK        -0.1931 
     34 N          25.0932   -2.2995   -1.1415 N.am      2 UNK        -0.4546 
     35 C          26.2138   -2.4630   -1.8581 C.2       1 UNK         0.5154 
     36 O          26.6641   -1.6050   -2.6200 O.2       1 UNK        -0.5181 
     37 C          27.7222    2.2032   -4.9277 C.2       5 UNK         0.5014 
     38 O          28.3890    3.2125   -5.1555 O.2       5 UNK        -0.5248 
     39 N          26.3915    2.1517   -5.0858 N.am      6 UNK        -0.4434 
     40 CA         25.5926    3.2422   -5.6413 C.3       6 UNK         0.0363 
     41 CB         24.1504    3.1454   -5.1164 C.3       6 UNK        -0.1936 
     42 C          25.6193    3.2378   -7.1783 C.2       6 UNK         0.5081 
     43 O          25.8381    4.2887   -7.7813 O.2       6 UNK        -0.5248 
     44 N          25.3673    2.0691   -7.7837 N.am      7 UNK        -0.4718 
     45 CA         25.2120    1.9029   -9.2291 C.3       7 UNK         0.0273 
     46 CB         24.4695    0.5874   -9.5179 C.3       7 UNK        -0.1935 
     47 C          26.5372    1.9511  -10.0021 C.2       7 UNK         0.5018 
     48 O          26.6053    2.6343  -11.0251 O.2       7 UNK        -0.5186 
     49 N          27.5467    1.2098   -9.5278 N.am      8 UNK        -0.4240 
     50 CA         28.8438    1.0720  -10.1910 C.3       8 UNK         0.0235 
     51 CB         29.2505   -0.4119  -10.2407 C.3       8 UNK        -0.2000 
     52 C          29.9231    1.8975   -9.4860 C.2       8 UNK         0.4941 
     53 O          30.6993    2.5686  -10.1682 O.2       8 UNK        -0.5273 
     54 N          29.9779    1.8140   -8.1469 N.am      9 UNK        -0.4262 
     55 CA         30.9951    2.3849   -7.2468 C.3       9 UNK         0.0264 
     56 CB         31.0610    3.9229   -7.3373 C.3       9 UNK        -0.1955 
     57 C          32.3777    1.7352   -7.4263 C.2       9 UNK         0.5031 
     58 O          32.8950    1.1335   -6.4854 O.2       9 UNK        -0.5390 
     59 N          32.9259    1.8242   -8.6420 N.am      10 UNK        -0.4204 
     60 CA         34.0570    1.0361   -9.1148 C.3       10 UNK         0.0237 
     61 CB         34.8514    1.8593  -10.1446 C.3       10 UNK        -0.1985 
     62 C          33.4825   -0.2539   -9.7156 C.2       10 UNK         0.4970 
     63 O          33.1177   -0.2704  -10.8924 O.2       10 UNK        -0.4914 
     64 N          33.3447   -1.2833   -8.8728 N.am      11 UNK        -0.4285 
     65 CA         32.6948   -2.5632   -9.2035 C.3       11 UNK         0.1007 
     66 C          33.4110   -3.4158  -10.2931 C.2       11 UNK         0.5703 
     67 N          34.6806   -3.1751  -10.5994 N.am      11 UNK        -0.7361 
     68 O          32.7998   -4.3121  -10.8700 O.2       11 UNK        -0.4986 
     69 C69        32.4353   -3.4231   -7.9390 C.3       12 UNK        -0.0947 
     70 S70        31.5206   -2.5549   -6.6170 S.3       12 UNK        -0.2240 
     71 C71        32.8381   -2.3215   -5.3823 C.3       12 UNK         0.0194 
     72 H72        26.5051   -6.3384   -4.8344 H         1 UNK         0.0906 
     73 H73        24.9215   -6.9056   -4.3019 H         1 UNK         0.0906 
     74 H74        25.0388   -5.5824   -5.4630 H         1 UNK         0.0906 
     75 H75        27.4999   -5.1625   -3.2393 H         1 UNK         0.3140 
     76 H76        26.5858   -4.3282   -0.8453 H         1 UNK         0.1085 
     77 H77        28.8169   -2.9435   -2.4155 H         1 UNK         0.0836 
     78 H78        28.6391   -2.9760   -0.6749 H         1 UNK         0.0836 
     79 H79        31.8916   -5.0692   -1.1654 H         1 UNK         0.0731 
     80 H80        31.0841   -4.0468   -0.0054 H         1 UNK         0.0731 
     81 H81        32.1264   -4.2426   -3.5989 H         1 UNK         0.1312 
     82 H82        32.2775    0.0187   -4.0824 H         1 UNK         0.1406 
     83 H83        30.8751   -1.6813   -0.4007 H         1 UNK         0.1631 
     84 H84        32.2810    1.1659   -1.3860 H         1 UNK         0.0717 
     85 H85        30.7910    0.6488   -0.6385 H         1 UNK         0.0717 
     86 H86        28.9024   -0.0646   -2.5667 H         1 UNK         0.0934 
     87 H87        28.0016    1.4064   -2.3555 H         1 UNK         0.0934 
     88 H88        29.3720    0.8470   -5.0138 H         1 UNK         0.0739 
     89 H89        27.2755   -0.8292   -4.0694 H         1 UNK         0.3093 
     90 H90        26.4532   -2.0109   -7.3741 H         1 UNK         0.0818 
     91 H91        27.9219   -3.2891   -5.0064 H         1 UNK         0.0819 
     92 H92        27.0670   -4.1561   -6.2885 H         1 UNK         0.0819 
     93 H93        28.5034   -3.2248   -6.6612 H         1 UNK         0.0819 
     94 H94        25.4155   -2.8144   -4.8742 H         1 UNK         0.3041 
     95 H95        22.5337   -0.6615   -4.9414 H         1 UNK         0.0784 
     96 H96        22.2300   -2.6085   -6.4591 H         1 UNK         0.0793 
     97 H97        23.0847   -3.6534   -5.3331 H         1 UNK         0.0793 
     98 H98        21.5461   -2.9300   -4.8741 H         1 UNK         0.0793 
     99 H99        23.7004   -2.6714   -3.1306 H         1 UNK         0.3024 
    100 H100       24.8732   -0.2614   -0.8230 H         1 UNK         0.1171 
    101 H101       22.4541   -0.3738   -0.1744 H         1 UNK         0.0786 
    102 H102       22.4465   -2.1075   -0.4672 H         1 UNK         0.0786 
    103 H103       23.4342   -1.4293    0.8284 H         1 UNK         0.0786 
    104 H104       24.7599   -3.0690   -0.5782 H         1 UNK         0.2977 
    105 H105       25.9116    1.2796   -4.9111 H         1 UNK         0.3127 
    106 H106       26.0046    4.1952   -5.3018 H         1 UNK         0.0770 
    107 H107       23.6726    2.2073   -5.4012 H         1 UNK         0.0814 
    108 H108       23.5371    3.9567   -5.5103 H         1 UNK         0.0814 
    109 H109       24.1203    3.2142   -4.0288 H         1 UNK         0.0814 
    110 H110       25.1578    1.2516   -7.2119 H         1 UNK         0.2983 
    111 H111       24.5897    2.7223   -9.5964 H         1 UNK         0.0947 
    112 H112       24.3168    0.4505  -10.5892 H         1 UNK         0.0806 
    113 H113       23.4868    0.5761   -9.0460 H         1 UNK         0.0806 
    114 H114       25.0234   -0.2785   -9.1527 H         1 UNK         0.0806 
    115 H115       27.4342    0.7141   -8.6467 H         1 UNK         0.3000 
    116 H116       28.7807    1.4267  -11.2222 H         1 UNK         0.0850 
    117 H117       30.1982   -0.5352  -10.7669 H         1 UNK         0.0810 
    118 H118       28.5068   -1.0078  -10.7698 H         1 UNK         0.0810 
    119 H119       29.3750   -0.8402   -9.2455 H         1 UNK         0.0810 
    120 H120       29.3095    1.1903   -7.7002 H         1 UNK         0.3040 
    121 H121       30.6751    2.1454   -6.2347 H         1 UNK         0.0766 
    122 H122       30.0836    4.3677   -7.1497 H         1 UNK         0.0812 
    123 H123       31.4061    4.2721   -8.3103 H         1 UNK         0.0812 
    124 H124       31.7463    4.3231   -6.5892 H         1 UNK         0.0812 
    125 H125       32.3506    2.2618   -9.3602 H         1 UNK         0.3205 
    126 H126       34.7237    0.7853   -8.2867 H         1 UNK         0.0754 
    127 H127       35.6831    1.2802  -10.5479 H         1 UNK         0.0769 
    128 H128       35.2706    2.7576   -9.6910 H         1 UNK         0.0769 
    129 H129       34.2306    2.1709  -10.9860 H         1 UNK         0.0769 
    130 H130       33.6240   -1.1658   -7.9102 H         1 UNK         0.2981 
    131 H131       31.7197   -2.3091   -9.6231 H         1 UNK         0.0541 
    132 H132       35.1314   -3.7318  -11.3083 H         1 UNK         0.3459 
    133 H133       35.1896   -2.4420  -10.1331 H         1 UNK         0.3459 
    134 H134       33.3782   -3.8066   -7.5461 H         1 UNK         0.0612 
    135 H135       31.8462   -4.3037   -8.2022 H         1 UNK         0.0612 
    136 H136       33.4515   -1.4652   -5.6651 H         1 UNK         0.0624 
    137 H137       33.5022   -3.1868   -5.3742 H         1 UNK         0.0624 
@<TRIPOS>BOND
     1    1    2 1    
     2    1   72 1    
     3    1   73 1    
     4    1   74 1    
     5    2    3 2    
     6    2    4 am   BACKBONE|DICT|INTERRES
     7    4    5 1    
     8    4   75 1    
     9    5    6 1    
    10    5   35 1    
    11    5   76 1    
    12    6    7 1    
    13    6   77 1    
    14    6   78 1    
    15    7    8 1    
    16    8    9 1    
    17    8   79 1    
    18    8   80 1    
    19    9   10 ar   
    20    9   14 ar   
    21   10   11 ar   
    22   10   81 1    
    23   11   12 ar   
    24   11   71 1    
    25   12   13 ar   
    26   12   82 1    
    27   13   14 ar   
    28   13   15 1    
    29   14   83 1    
    30   15   16 1    
    31   15   84 1    
    32   15   85 1    
    33   16   17 1    
    34   17   18 1    
    35   17   86 1    
    36   17   87 1    
    37   18   19 1    
    38   18   37 1    
    39   18   88 1    
    40   19   20 am   BACKBONE|DICT|INTERRES
    41   19   89 1    
    42   20   21 2    
    43   20   22 1    
    44   22   23 1    
    45   22   24 1    
    46   22   90 1    
    47   23   91 1    
    48   23   92 1    
    49   23   93 1    
    50   24   25 am   BACKBONE|DICT|INTERRES
    51   24   94 1    
    52   25   26 2    
    53   25   27 1    
    54   27   28 1    
    55   27   29 1    
    56   27   95 1    
    57   28   96 1    
    58   28   97 1    
    59   28   98 1    
    60   29   30 am   BACKBONE|DICT|INTERRES
    61   29   99 1    
    62   30   31 2    
    63   30   32 1    
    64   32   33 1    
    65   32   34 1    
    66   32  100 1    
    67   33  101 1    
    68   33  102 1    
    69   33  103 1    
    70   34   35 am   BACKBONE|DICT|INTERRES
    71   34  104 1    
    72   35   36 2    
    73   37   38 2    
    74   37   39 am   BACKBONE|DICT|INTERRES
    75   39   40 1    
    76   39  105 1    
    77   40   41 1    
    78   40   42 1    
    79   40  106 1    
    80   41  107 1    
    81   41  108 1    
    82   41  109 1    
    83   42   43 2    
    84   42   44 am   BACKBONE|DICT|INTERRES
    85   44   45 1    
    86   44  110 1    
    87   45   46 1    
    88   45   47 1    
    89   45  111 1    
    90   46  112 1    
    91   46  113 1    
    92   46  114 1    
    93   47   48 2    
    94   47   49 am   BACKBONE|DICT|INTERRES
    95   49   50 1    
    96   49  115 1    
    97   50   51 1    
    98   50   52 1    
    99   50  116 1    
   100   51  117 1    
   101   51  118 1    
   102   51  119 1    
   103   52   53 2    
   104   52   54 am   BACKBONE|DICT|INTERRES
   105   54   55 1    
   106   54  120 1    
   107   55   56 1    
   108   55   57 1    
   109   55  121 1    
   110   56  122 1    
   111   56  123 1    
   112   56  124 1    
   113   57   58 2    
   114   57   59 am   BACKBONE|DICT|INTERRES
   115   59   60 1    
   116   59  125 1    
   117   60   61 1    
   118   60   62 1    
   119   60  126 1    
   120   61  127 1    
   121   61  128 1    
   122   61  129 1    
   123   62   63 2    
   124   62   64 am   BACKBONE|DICT|INTERRES
   125   64   65 1    
   126   64  130 1    
   127   65   66 1    
   128   65   69 1    
   129   65  131 1    
   130   66   67 am   BACKBONE|DICT|INTERRES
   131   66   68 2    
   132   67  132 1    
   133   67  133 1    
   134   69   70 1    
   135   69  134 1    
   136   69  135 1    
   137   70   71 1    
   138   71  136 1    
   139   71  137 1    
@<TRIPOS>SUBSTRUCTURE
     1 UNK         1 GROUP             0       ****    0 ROOT    
