@<TRIPOS>MOLECULE
3R137
137   139    1
SMALL
USER_CHARGES


@<TRIPOS>ATOM
      1 CA         28.4467   -6.4234    1.3462 C.3       0 UNK        -0.2020 
      2 C          27.9651   -5.1514    0.6644 C.2       0 UNK         0.4855 
      3 O          28.2855   -4.9413   -0.5052 O.2       0 UNK        -0.5197 
      4 N          27.1946   -4.3292    1.3951 N.am      1 UNK        -0.4892 
      5 CA         26.5798   -3.0241    1.0743 C.3       1 UNK         0.0835 
      6 C6         27.5314   -1.7948    1.1790 C.3       12 UNK        -0.0855 
      7 S7         29.0659   -1.8577    0.1943 S.3       12 UNK        -0.2931 
      8 C8         28.6115   -0.9014   -1.2830 C.3       12 UNK         0.0378 
      9 C9         29.6369   -1.1172   -2.3838 C.ar      12 UNK        -0.0802 
     10 C10        30.6546   -0.1838   -2.6017 C.ar      12 UNK        -0.0944 
     11 C11        31.6138   -0.4028   -3.5951 C.ar      12 UNK        -0.0787 
     12 C12        31.5449   -1.5616   -4.3749 C.ar      12 UNK        -0.0862 
     13 C13        30.5295   -2.4983   -4.1706 C.ar      12 UNK        -0.0733 
     14 C14        29.5777   -2.2699   -3.1722 C.ar      12 UNK        -0.0832 
     15 C15        30.4890   -3.7703   -5.0064 C.3       12 UNK         0.0240 
     16 S16        29.8887   -3.4700   -6.6997 S.3       12 UNK        -0.2522 
     17 C17        28.1254   -3.1231   -6.3988 C.3       12 UNK        -0.0967 
     18 CA         27.5160   -1.9730   -7.2405 C.3       5 UNK         0.0660 
     19 N          26.0821   -1.8506   -6.9588 N.am      5 UNK        -0.4015 
     20 C          25.2014   -1.1637   -7.6995 C.2       4 UNK         0.4946 
     21 O          25.4950   -0.5669   -8.7332 O.2       4 UNK        -0.5353 
     22 CA         23.7501   -1.1074   -7.1895 C.3       4 UNK         0.0277 
     23 CB         22.9575   -2.3262   -7.6878 C.3       4 UNK        -0.1981 
     24 N          23.6511   -1.0211   -5.7301 N.am      4 UNK        -0.4209 
     25 C          24.0920    0.0135   -4.9999 C.2       3 UNK         0.4942 
     26 O          24.5868    1.0284   -5.4846 O.2       3 UNK        -0.5208 
     27 CA         24.0186   -0.1213   -3.4698 C.3       3 UNK         0.0250 
     28 CB         22.6834    0.4282   -2.9442 C.3       3 UNK        -0.1990 
     29 N          24.2157   -1.4883   -2.9757 N.am      3 UNK        -0.4232 
     30 C          25.2954   -2.2449   -3.2132 C.2       2 UNK         0.4993 
     31 O          26.2382   -1.8830   -3.9200 O.2       2 UNK        -0.5286 
     32 CA         25.3247   -3.6325   -2.5506 C.3       2 UNK         0.0209 
     33 CB         25.9711   -4.6857   -3.4686 C.3       2 UNK        -0.1931 
     34 N          26.0453   -3.6025   -1.2776 N.am      2 UNK        -0.4546 
     35 C          25.6588   -2.9658   -0.1672 C.2       1 UNK         0.5154 
     36 O          24.5916   -2.3554   -0.0828 O.2       1 UNK        -0.5181 
     37 C          28.2255   -0.6149   -7.0464 C.2       5 UNK         0.5014 
     38 O          29.0230   -0.2109   -7.8991 O.2       5 UNK        -0.5248 
     39 N          27.8629    0.0916   -5.9647 N.am      6 UNK        -0.4434 
     40 CA         28.3008    1.4590   -5.6853 C.3       6 UNK         0.0363 
     41 CB         27.8628    1.8682   -4.2701 C.3       6 UNK        -0.1936 
     42 C          27.7889    2.4645   -6.7322 C.2       6 UNK         0.5081 
     43 O          28.5822    3.2521   -7.2459 O.2       6 UNK        -0.5248 
     44 N          26.4879    2.4060   -7.0560 N.am      7 UNK        -0.4718 
     45 CA         25.8254    3.2715   -8.0401 C.3       7 UNK         0.0273 
     46 CB         24.3063    3.0460   -7.9942 C.3       7 UNK        -0.1935 
     47 C          26.3509    3.0911   -9.4735 C.2       7 UNK         0.5018 
     48 O          26.4798    4.0800  -10.1958 O.2       7 UNK        -0.5186 
     49 N          26.6788    1.8467   -9.8492 N.am      8 UNK        -0.4240 
     50 CA         27.3379    1.5053  -11.1134 C.3       8 UNK         0.0235 
     51 CB         27.2118   -0.0085  -11.3549 C.3       8 UNK        -0.2000 
     52 C          28.8187    1.9262  -11.1719 C.2       8 UNK         0.4941 
     53 O          29.4010    1.8804  -12.2564 O.2       8 UNK        -0.5273 
     54 N          29.4023    2.3013  -10.0218 N.am      9 UNK        -0.4262 
     55 CA         30.8110    2.6413   -9.8045 C.3       9 UNK         0.0264 
     56 CB         31.1895    3.9426  -10.5434 C.3       9 UNK        -0.1955 
     57 C          31.7486    1.4631  -10.1239 C.2       9 UNK         0.5031 
     58 O          32.8175    1.6629  -10.7036 O.2       9 UNK        -0.5390 
     59 N          31.3378    0.2510   -9.7235 N.am      10 UNK        -0.4204 
     60 CA         32.0906   -0.9926   -9.9194 C.3       10 UNK         0.0237 
     61 CB         31.0944   -2.1566  -10.0516 C.3       10 UNK        -0.1985 
     62 C          33.1490   -1.2426   -8.8234 C.2       10 UNK         0.4970 
     63 O          33.7451   -2.3203   -8.7933 O.2       10 UNK        -0.4914 
     64 N          33.3650   -0.2493   -7.9524 N.am      11 UNK        -0.4285 
     65 CA         34.3801   -0.1961   -6.8940 C.3       11 UNK         0.1007 
     66 C          35.8292   -0.3927   -7.4195 C.2       11 UNK         0.5703 
     67 N          36.6726   -1.0906   -6.6707 N.am      11 UNK        -0.7361 
     68 O          36.2058    0.1194   -8.4723 O.2       11 UNK        -0.4986 
     69 C69        34.2737    1.1345   -6.1016 C.3       12 UNK        -0.0947 
     70 S70        32.6096    1.4312   -5.4108 S.3       12 UNK        -0.2240 
     71 C71        32.7465    0.5897   -3.8034 C.3       12 UNK         0.0194 
     72 H72        29.5360   -6.4514    1.3566 H         1 UNK         0.0906 
     73 H73        28.0891   -7.2978    0.8031 H         1 UNK         0.0906 
     74 H74        28.0965   -6.4966    2.3756 H         1 UNK         0.0906 
     75 H75        26.9818   -4.6367    2.3344 H         1 UNK         0.3140 
     76 H76        25.8756   -2.8949    1.8987 H         1 UNK         0.1085 
     77 H77        27.8418   -1.6897    2.2196 H         1 UNK         0.0836 
     78 H78        26.9958   -0.8700    0.9540 H         1 UNK         0.0836 
     79 H79        27.6272   -1.2047   -1.6378 H         1 UNK         0.0731 
     80 H80        28.5356    0.1558   -1.0244 H         1 UNK         0.0731 
     81 H81        30.7078    0.7045   -1.9873 H         1 UNK         0.1312 
     82 H82        32.2825   -1.7389   -5.1438 H         1 UNK         0.1406 
     83 H83        28.7954   -2.9941   -2.9910 H         1 UNK         0.1631 
     84 H84        29.8653   -4.5288   -4.5303 H         1 UNK         0.0717 
     85 H85        31.4925   -4.1946   -5.0621 H         1 UNK         0.0717 
     86 H86        27.5783   -4.0470   -6.5930 H         1 UNK         0.0934 
     87 H87        27.9867   -2.9200   -5.3401 H         1 UNK         0.0934 
     88 H88        27.6209   -2.2399   -8.2944 H         1 UNK         0.0739 
     89 H89        25.7727   -2.2314   -6.0746 H         1 UNK         0.3093 
     90 H90        23.2897   -0.2099   -7.6071 H         1 UNK         0.0818 
     91 H91        23.0001   -2.3993   -8.7756 H         1 UNK         0.0819 
     92 H92        23.3499   -3.2600   -7.2832 H         1 UNK         0.0819 
     93 H93        21.9052   -2.2555   -7.4118 H         1 UNK         0.0819 
     94 H94        23.2475   -1.8105   -5.2472 H         1 UNK         0.3041 
     95 H95        24.8244    0.4882   -3.0555 H         1 UNK         0.0784 
     96 H96        22.5247    1.4543   -3.2796 H         1 UNK         0.0793 
     97 H97        21.8364   -0.1639   -3.2930 H         1 UNK         0.0793 
     98 H98        22.6605    0.4391   -1.8542 H         1 UNK         0.0793 
     99 H99        23.5204   -1.8383   -2.3306 H         1 UNK         0.3024 
    100 H100       24.2963   -3.9447   -2.3557 H         1 UNK         0.1171 
    101 H101       27.0277   -4.4816   -3.6423 H         1 UNK         0.0786 
    102 H102       25.8948   -5.6838   -3.0370 H         1 UNK         0.0786 
    103 H103       25.4787   -4.7149   -4.4414 H         1 UNK         0.0786 
    104 H104       26.9399   -4.0908   -1.2299 H         1 UNK         0.2977 
    105 H105       27.2148   -0.3285   -5.3094 H         1 UNK         0.3127 
    106 H106       29.3927    1.4668   -5.7175 H         1 UNK         0.0770 
    107 H107       28.2329    2.8639   -4.0230 H         1 UNK         0.0814 
    108 H108       26.7778    1.8891   -4.1682 H         1 UNK         0.0814 
    109 H109       28.2540    1.1824   -3.5206 H         1 UNK         0.0814 
    110 H110       25.8850    1.7626   -6.5451 H         1 UNK         0.2983 
    111 H111       26.0238    4.3055   -7.7500 H         1 UNK         0.0947 
    112 H112       24.0456    2.0185   -8.2483 H         1 UNK         0.0806 
    113 H113       23.7918    3.6986   -8.7009 H         1 UNK         0.0806 
    114 H114       23.9031    3.2594   -7.0041 H         1 UNK         0.0806 
    115 H115       26.4626    1.0718   -9.2271 H         1 UNK         0.3000 
    116 H116       26.8199    2.0263  -11.9214 H         1 UNK         0.0850 
    117 H117       27.6735   -0.2974  -12.3000 H         1 UNK         0.0810 
    118 H118       26.1672   -0.3172  -11.3989 H         1 UNK         0.0810 
    119 H119       27.6982   -0.5823  -10.5645 H         1 UNK         0.0810 
    120 H120       28.8307    2.3162   -9.1847 H         1 UNK         0.3040 
    121 H121       30.9154    2.8293   -8.7347 H         1 UNK         0.0766 
    122 H122       31.1673    3.8166  -11.6262 H         1 UNK         0.0812 
    123 H123       32.1964    4.2644  -10.2751 H         1 UNK         0.0812 
    124 H124       30.5105    4.7553  -10.2855 H         1 UNK         0.0812 
    125 H125       30.4657    0.1720   -9.2027 H         1 UNK         0.3205 
    126 H126       32.6392   -0.9269  -10.8613 H         1 UNK         0.0754 
    127 H127       31.6059   -3.1131  -10.1659 H         1 UNK         0.0769 
    128 H128       30.4538   -2.0269  -10.9241 H         1 UNK         0.0769 
    129 H129       30.4489   -2.2291   -9.1788 H         1 UNK         0.0769 
    130 H130       32.8202    0.5909   -8.0620 H         1 UNK         0.2981 
    131 H131       34.1645   -1.0198   -6.2129 H         1 UNK         0.0541 
    132 H132       37.6213   -1.2136   -6.9886 H         1 UNK         0.3459 
    133 H133       36.3803   -1.5037   -5.7989 H         1 UNK         0.3459 
    134 H134       34.5122    1.9785   -6.7518 H         1 UNK         0.0612 
    135 H135       35.0065    1.1665   -5.2932 H         1 UNK         0.0612 
    136 H136       33.6939    0.0551   -3.7262 H         1 UNK         0.0624 
    137 H137       32.7562    1.3435   -3.0148 H         1 UNK         0.0624 
@<TRIPOS>BOND
     1    1    2 1    
     2    1   72 1    
     3    1   73 1    
     4    1   74 1    
     5    2    3 2    
     6    2    4 am   BACKBONE|DICT|INTERRES
     7    4    5 1    
     8    4   75 1    
     9    5    6 1    
    10    5   35 1    
    11    5   76 1    
    12    6    7 1    
    13    6   77 1    
    14    6   78 1    
    15    7    8 1    
    16    8    9 1    
    17    8   79 1    
    18    8   80 1    
    19    9   10 ar   
    20    9   14 ar   
    21   10   11 ar   
    22   10   81 1    
    23   11   12 ar   
    24   11   71 1    
    25   12   13 ar   
    26   12   82 1    
    27   13   14 ar   
    28   13   15 1    
    29   14   83 1    
    30   15   16 1    
    31   15   84 1    
    32   15   85 1    
    33   16   17 1    
    34   17   18 1    
    35   17   86 1    
    36   17   87 1    
    37   18   19 1    
    38   18   37 1    
    39   18   88 1    
    40   19   20 am   BACKBONE|DICT|INTERRES
    41   19   89 1    
    42   20   21 2    
    43   20   22 1    
    44   22   23 1    
    45   22   24 1    
    46   22   90 1    
    47   23   91 1    
    48   23   92 1    
    49   23   93 1    
    50   24   25 am   BACKBONE|DICT|INTERRES
    51   24   94 1    
    52   25   26 2    
    53   25   27 1    
    54   27   28 1    
    55   27   29 1    
    56   27   95 1    
    57   28   96 1    
    58   28   97 1    
    59   28   98 1    
    60   29   30 am   BACKBONE|DICT|INTERRES
    61   29   99 1    
    62   30   31 2    
    63   30   32 1    
    64   32   33 1    
    65   32   34 1    
    66   32  100 1    
    67   33  101 1    
    68   33  102 1    
    69   33  103 1    
    70   34   35 am   BACKBONE|DICT|INTERRES
    71   34  104 1    
    72   35   36 2    
    73   37   38 2    
    74   37   39 am   BACKBONE|DICT|INTERRES
    75   39   40 1    
    76   39  105 1    
    77   40   41 1    
    78   40   42 1    
    79   40  106 1    
    80   41  107 1    
    81   41  108 1    
    82   41  109 1    
    83   42   43 2    
    84   42   44 am   BACKBONE|DICT|INTERRES
    85   44   45 1    
    86   44  110 1    
    87   45   46 1    
    88   45   47 1    
    89   45  111 1    
    90   46  112 1    
    91   46  113 1    
    92   46  114 1    
    93   47   48 2    
    94   47   49 am   BACKBONE|DICT|INTERRES
    95   49   50 1    
    96   49  115 1    
    97   50   51 1    
    98   50   52 1    
    99   50  116 1    
   100   51  117 1    
   101   51  118 1    
   102   51  119 1    
   103   52   53 2    
   104   52   54 am   BACKBONE|DICT|INTERRES
   105   54   55 1    
   106   54  120 1    
   107   55   56 1    
   108   55   57 1    
   109   55  121 1    
   110   56  122 1    
   111   56  123 1    
   112   56  124 1    
   113   57   58 2    
   114   57   59 am   BACKBONE|DICT|INTERRES
   115   59   60 1    
   116   59  125 1    
   117   60   61 1    
   118   60   62 1    
   119   60  126 1    
   120   61  127 1    
   121   61  128 1    
   122   61  129 1    
   123   62   63 2    
   124   62   64 am   BACKBONE|DICT|INTERRES
   125   64   65 1    
   126   64  130 1    
   127   65   66 1    
   128   65   69 1    
   129   65  131 1    
   130   66   67 am   BACKBONE|DICT|INTERRES
   131   66   68 2    
   132   67  132 1    
   133   67  133 1    
   134   69   70 1    
   135   69  134 1    
   136   69  135 1    
   137   70   71 1    
   138   71  136 1    
   139   71  137 1    
@<TRIPOS>SUBSTRUCTURE
     1 UNK         1 GROUP             0       ****    0 ROOT    
