@<TRIPOS>MOLECULE
3R137
137   139    1
SMALL
USER_CHARGES


@<TRIPOS>ATOM
      1 CA         26.5076   -6.3184   -4.6446 C.3       0 UNK        -0.2020 
      2 C          26.2264   -5.4290   -3.4433 C.2       0 UNK         0.4855 
      3 O          25.0626   -5.2237   -3.0960 O.2       0 UNK        -0.5197 
      4 N          27.2834   -4.8992   -2.8120 N.am      1 UNK        -0.4892 
      5 CA         27.2360   -3.9682   -1.6774 C.3       1 UNK         0.0835 
      6 C6         28.6515   -3.4943   -1.2692 C.3       12 UNK        -0.0855 
      7 S7         29.8905   -4.7911   -0.9300 S.3       12 UNK        -0.2931 
      8 C8         31.3431   -3.7763   -0.4551 C.3       12 UNK         0.0378 
      9 C9         31.6458   -2.6903   -1.4829 C.ar      12 UNK        -0.0802 
     10 C10        32.4219   -2.9698   -2.6105 C.ar      12 UNK        -0.0944 
     11 C11        32.5936   -2.0049   -3.6093 C.ar      12 UNK        -0.0787 
     12 C12        31.9544   -0.7649   -3.4897 C.ar      12 UNK        -0.0862 
     13 C13        31.1667   -0.4779   -2.3700 C.ar      12 UNK        -0.0733 
     14 C14        31.0749   -1.4219   -1.3423 C.ar      12 UNK        -0.0832 
     15 C15        30.3470    0.8078   -2.3016 C.3       12 UNK         0.0240 
     16 S16        28.5842    0.4194   -2.0252 S.3       12 UNK        -0.2522 
     17 C17        27.6880    1.7389   -2.9023 C.3       12 UNK        -0.0967 
     18 CA         27.5852    1.5317   -4.4371 C.3       5 UNK         0.0660 
     19 N          27.2220    0.1699   -4.8477 N.am      5 UNK        -0.4015 
     20 C          27.2877   -0.2763   -6.1122 C.2       4 UNK         0.4946 
     21 O          27.7255    0.3887   -7.0524 O.2       4 UNK        -0.5353 
     22 CA         26.7327   -1.6809   -6.3920 C.3       4 UNK         0.0277 
     23 CB         27.7966   -2.7606   -6.1284 C.3       4 UNK        -0.1981 
     24 N          25.5309   -1.9589   -5.6038 N.am      4 UNK        -0.4209 
     25 C          24.3282   -1.4132   -5.8316 C.2       3 UNK         0.4942 
     26 O          24.0949   -0.6409   -6.7601 O.2       3 UNK        -0.5208 
     27 CA         23.2000   -1.7619   -4.8444 C.3       3 UNK         0.0250 
     28 CB         22.5360   -3.0919   -5.2344 C.3       3 UNK        -0.1990 
     29 N          23.6510   -1.8324   -3.4528 N.am      3 UNK        -0.4232 
     30 C          24.1076   -0.7862   -2.7496 C.2       2 UNK         0.4993 
     31 O          24.1609    0.3636   -3.1864 O.2       2 UNK        -0.5286 
     32 CA         24.6661   -1.0815   -1.3444 C.3       2 UNK         0.0209 
     33 CB         23.5377   -1.0578   -0.3013 C.3       2 UNK        -0.1931 
     34 N          25.4247   -2.3372   -1.2220 N.am      2 UNK        -0.4546 
     35 C          26.4232   -2.7082   -2.0362 C.2       1 UNK         0.5154 
     36 O          26.7436   -2.0794   -3.0452 O.2       1 UNK        -0.5181 
     37 C          26.6275    2.5699   -5.0557 C.2       5 UNK         0.5014 
     38 O          27.0963    3.5736   -5.5925 O.2       5 UNK        -0.5248 
     39 N          25.3128    2.2969   -5.0045 N.am      6 UNK        -0.4434 
     40 CA         24.2606    3.1252   -5.6042 C.3       6 UNK         0.0363 
     41 CB         22.8801    2.6003   -5.1798 C.3       6 UNK        -0.1936 
     42 C          24.3548    3.2127   -7.1371 C.2       6 UNK         0.5081 
     43 O          24.1416    4.2895   -7.6944 O.2       6 UNK        -0.5248 
     44 N          24.7012    2.0940   -7.7893 N.am      7 UNK        -0.4718 
     45 CA         24.9693    2.0202   -9.2295 C.3       7 UNK         0.0273 
     46 CB         24.9426    0.5471   -9.6691 C.3       7 UNK        -0.1935 
     47 C          26.3026    2.6713   -9.6459 C.2       7 UNK         0.5018 
     48 O          26.5012    2.8986  -10.8400 O.2       7 UNK        -0.5186 
     49 N          27.1856    2.9371   -8.6706 N.am      8 UNK        -0.4240 
     50 CA         28.5557    3.4398   -8.8075 C.3       8 UNK         0.0235 
     51 CB         28.5647    4.8863   -9.3467 C.3       8 UNK        -0.2000 
     52 C          29.4407    2.4763   -9.6198 C.2       8 UNK         0.4941 
     53 O          30.1221    2.9006  -10.5563 O.2       8 UNK        -0.5273 
     54 N          29.3896    1.1861   -9.2578 N.am      9 UNK        -0.4262 
     55 CA         30.1566    0.1083   -9.8838 C.3       9 UNK         0.0264 
     56 CB         29.7078   -1.2366   -9.2916 C.3       9 UNK        -0.1955 
     57 C          31.6707    0.2906   -9.6908 C.2       9 UNK         0.5031 
     58 O          32.1134    0.6423   -8.5944 O.2       9 UNK        -0.5390 
     59 N          32.4461   -0.0059  -10.7402 N.am      10 UNK        -0.4204 
     60 CA         33.9091    0.0990  -10.7682 C.3       10 UNK         0.0237 
     61 CB         34.3614    0.3409  -12.2214 C.3       10 UNK        -0.1985 
     62 C          34.6099   -1.1162  -10.1236 C.2       10 UNK         0.4970 
     63 O          35.5972   -1.6135  -10.6687 O.2       10 UNK        -0.4914 
     64 N          34.0887   -1.5813   -8.9823 N.am      11 UNK        -0.4285 
     65 CA         34.6378   -2.6954   -8.1952 C.3       11 UNK         0.1007 
     66 C          35.8634   -2.3266   -7.3088 C.2       11 UNK         0.5703 
     67 N          36.2340   -1.0582   -7.1753 N.am      11 UNK        -0.7361 
     68 O          36.4979   -3.2119   -6.7403 O.2       11 UNK        -0.4986 
     69 C69        33.5324   -3.4512   -7.4077 C.3       12 UNK        -0.0947 
     70 S70        32.4674   -2.4071   -6.3522 S.3       12 UNK        -0.2240 
     71 C71        33.4544   -2.3133   -4.8251 C.3       12 UNK         0.0194 
     72 H72        27.5727   -6.3776   -4.8686 H         1 UNK         0.0906 
     73 H73        26.1425   -7.3279   -4.4574 H         1 UNK         0.0906 
     74 H74        25.9976   -5.9294   -5.5256 H         1 UNK         0.0906 
     75 H75        28.2148   -5.1107   -3.1409 H         1 UNK         0.3140 
     76 H76        26.7667   -4.4805   -0.8354 H         1 UNK         0.1085 
     77 H77        29.0526   -2.8886   -2.0837 H         1 UNK         0.0836 
     78 H78        28.5938   -2.8438   -0.3939 H         1 UNK         0.0836 
     79 H79        32.2099   -4.4281   -0.3359 H         1 UNK         0.0731 
     80 H80        31.1621   -3.3287    0.5235 H         1 UNK         0.0731 
     81 H81        32.8701   -3.9480   -2.7205 H         1 UNK         0.1312 
     82 H82        32.0462   -0.0402   -4.2874 H         1 UNK         0.1406 
     83 H83        30.4616   -1.2057   -0.4781 H         1 UNK         0.1631 
     84 H84        30.4541    1.3787   -3.2249 H         1 UNK         0.0717 
     85 H85        30.7142    1.4397   -1.4920 H         1 UNK         0.0717 
     86 H86        26.6915    1.7848   -2.4578 H         1 UNK         0.0934 
     87 H87        28.1616    2.6966   -2.6772 H         1 UNK         0.0934 
     88 H88        28.5758    1.7239   -4.8550 H         1 UNK         0.0739 
     89 H89        26.9266   -0.4730   -4.1169 H         1 UNK         0.3093 
     90 H90        26.4623   -1.7266   -7.4490 H         1 UNK         0.0818 
     91 H91        28.1494   -2.7487   -5.0971 H         1 UNK         0.0819 
     92 H92        27.4109   -3.7575   -6.3401 H         1 UNK         0.0819 
     93 H93        28.6691   -2.6121   -6.7637 H         1 UNK         0.0819 
     94 H94        25.6730   -2.4739   -4.7427 H         1 UNK         0.3041 
     95 H95        22.4485   -0.9723   -4.9120 H         1 UNK         0.0784 
     96 H96        22.1808   -3.0631   -6.2656 H         1 UNK         0.0793 
     97 H97        23.2295   -3.9302   -5.1507 H         1 UNK         0.0793 
     98 H98        21.6742   -3.3053   -4.6019 H         1 UNK         0.0793 
     99 H99        23.6838   -2.7480   -3.0254 H         1 UNK         0.3024 
    100 H100       25.3612   -0.2716   -1.1113 H         1 UNK         0.1171 
    101 H101       22.9695   -0.1282   -0.3614 H         1 UNK         0.0786 
    102 H102       23.9318   -1.1276    0.7128 H         1 UNK         0.0786 
    103 H103       22.8353   -1.8794   -0.4472 H         1 UNK         0.0786 
    104 H104       25.2103   -2.9147   -0.4215 H         1 UNK         0.2977 
    105 H105       24.9986    1.4756   -4.4908 H         1 UNK         0.3127 
    106 H106       24.3748    4.1373   -5.2102 H         1 UNK         0.0770 
    107 H107       22.7207    1.5733   -5.5104 H         1 UNK         0.0814 
    108 H108       22.0816    3.2092   -5.6057 H         1 UNK         0.0814 
    109 H109       22.7628    2.6244   -4.0962 H         1 UNK         0.0814 
    110 H110       24.7775    1.2251   -7.2689 H         1 UNK         0.2983 
    111 H111       24.1718    2.5500   -9.7549 H         1 UNK         0.0947 
    112 H112       25.1069    0.4542  -10.7435 H         1 UNK         0.0806 
    113 H113       23.9808    0.0840   -9.4483 H         1 UNK         0.0806 
    114 H114       25.7180   -0.0341   -9.1688 H         1 UNK         0.0806 
    115 H115       26.9157    2.6889   -7.7269 H         1 UNK         0.3000 
    116 H116       28.9737    3.4613   -7.7998 H         1 UNK         0.0850 
    117 H117       29.5751    5.2966   -9.3420 H         1 UNK         0.0810 
    118 H118       27.9460    5.5404   -8.7322 H         1 UNK         0.0810 
    119 H119       28.1971    4.9415  -10.3718 H         1 UNK         0.0810 
    120 H120       28.8057    0.9266   -8.4637 H         1 UNK         0.3040 
    121 H121       29.9268    0.1165  -10.9513 H         1 UNK         0.0766 
    122 H122       28.6354   -1.3903   -9.4140 H         1 UNK         0.0812 
    123 H123       29.9361   -1.2925   -8.2266 H         1 UNK         0.0812 
    124 H124       30.2158   -2.0706   -9.7776 H         1 UNK         0.0812 
    125 H125       32.0067   -0.3341  -11.5887 H         1 UNK         0.3205 
    126 H126       34.2051    0.9737  -10.1850 H         1 UNK         0.0754 
    127 H127       35.4385    0.5058  -12.2761 H         1 UNK         0.0769 
    128 H128       33.8822    1.2242  -12.6443 H         1 UNK         0.0769 
    129 H129       34.1277   -0.5090  -12.8641 H         1 UNK         0.0769 
    130 H130       33.3067   -1.0840   -8.5709 H         1 UNK         0.2981 
    131 H131       35.0346   -3.4194   -8.9095 H         1 UNK         0.0541 
    132 H132       35.7194   -0.3234   -7.6325 H         1 UNK         0.3459 
    133 H133       37.0345   -0.8357   -6.6051 H         1 UNK         0.3459 
    134 H134       32.8716   -3.9423   -8.1235 H         1 UNK         0.0612 
    135 H135       33.9559   -4.2626   -6.8132 H         1 UNK         0.0612 
    136 H136       34.2111   -1.5357   -4.9346 H         1 UNK         0.0624 
    137 H137       33.9930   -3.2506   -4.6780 H         1 UNK         0.0624 
@<TRIPOS>BOND
     1    1    2 1    
     2    1   72 1    
     3    1   73 1    
     4    1   74 1    
     5    2    3 2    
     6    2    4 am   BACKBONE|DICT|INTERRES
     7    4    5 1    
     8    4   75 1    
     9    5    6 1    
    10    5   35 1    
    11    5   76 1    
    12    6    7 1    
    13    6   77 1    
    14    6   78 1    
    15    7    8 1    
    16    8    9 1    
    17    8   79 1    
    18    8   80 1    
    19    9   10 ar   
    20    9   14 ar   
    21   10   11 ar   
    22   10   81 1    
    23   11   12 ar   
    24   11   71 1    
    25   12   13 ar   
    26   12   82 1    
    27   13   14 ar   
    28   13   15 1    
    29   14   83 1    
    30   15   16 1    
    31   15   84 1    
    32   15   85 1    
    33   16   17 1    
    34   17   18 1    
    35   17   86 1    
    36   17   87 1    
    37   18   19 1    
    38   18   37 1    
    39   18   88 1    
    40   19   20 am   BACKBONE|DICT|INTERRES
    41   19   89 1    
    42   20   21 2    
    43   20   22 1    
    44   22   23 1    
    45   22   24 1    
    46   22   90 1    
    47   23   91 1    
    48   23   92 1    
    49   23   93 1    
    50   24   25 am   BACKBONE|DICT|INTERRES
    51   24   94 1    
    52   25   26 2    
    53   25   27 1    
    54   27   28 1    
    55   27   29 1    
    56   27   95 1    
    57   28   96 1    
    58   28   97 1    
    59   28   98 1    
    60   29   30 am   BACKBONE|DICT|INTERRES
    61   29   99 1    
    62   30   31 2    
    63   30   32 1    
    64   32   33 1    
    65   32   34 1    
    66   32  100 1    
    67   33  101 1    
    68   33  102 1    
    69   33  103 1    
    70   34   35 am   BACKBONE|DICT|INTERRES
    71   34  104 1    
    72   35   36 2    
    73   37   38 2    
    74   37   39 am   BACKBONE|DICT|INTERRES
    75   39   40 1    
    76   39  105 1    
    77   40   41 1    
    78   40   42 1    
    79   40  106 1    
    80   41  107 1    
    81   41  108 1    
    82   41  109 1    
    83   42   43 2    
    84   42   44 am   BACKBONE|DICT|INTERRES
    85   44   45 1    
    86   44  110 1    
    87   45   46 1    
    88   45   47 1    
    89   45  111 1    
    90   46  112 1    
    91   46  113 1    
    92   46  114 1    
    93   47   48 2    
    94   47   49 am   BACKBONE|DICT|INTERRES
    95   49   50 1    
    96   49  115 1    
    97   50   51 1    
    98   50   52 1    
    99   50  116 1    
   100   51  117 1    
   101   51  118 1    
   102   51  119 1    
   103   52   53 2    
   104   52   54 am   BACKBONE|DICT|INTERRES
   105   54   55 1    
   106   54  120 1    
   107   55   56 1    
   108   55   57 1    
   109   55  121 1    
   110   56  122 1    
   111   56  123 1    
   112   56  124 1    
   113   57   58 2    
   114   57   59 am   BACKBONE|DICT|INTERRES
   115   59   60 1    
   116   59  125 1    
   117   60   61 1    
   118   60   62 1    
   119   60  126 1    
   120   61  127 1    
   121   61  128 1    
   122   61  129 1    
   123   62   63 2    
   124   62   64 am   BACKBONE|DICT|INTERRES
   125   64   65 1    
   126   64  130 1    
   127   65   66 1    
   128   65   69 1    
   129   65  131 1    
   130   66   67 am   BACKBONE|DICT|INTERRES
   131   66   68 2    
   132   67  132 1    
   133   67  133 1    
   134   69   70 1    
   135   69  134 1    
   136   69  135 1    
   137   70   71 1    
   138   71  136 1    
   139   71  137 1    
@<TRIPOS>SUBSTRUCTURE
     1 UNK         1 GROUP             0       ****    0 ROOT    
