@<TRIPOS>MOLECULE
3R137
137   139    1
SMALL
USER_CHARGES


@<TRIPOS>ATOM
      1 CA         23.0993   -3.9066   -2.0228 C.3       0 UNK        -0.2020 
      2 C          24.3291   -3.3308   -1.3365 C.2       0 UNK         0.4855 
      3 O          24.1964   -2.4999   -0.4383 O.2       0 UNK        -0.5197 
      4 N          25.5251   -3.7703   -1.7494 N.am      1 UNK        -0.4892 
      5 CA         26.8163   -3.2816   -1.2573 C.3       1 UNK         0.0835 
      6 C6         27.9589   -4.2189   -1.7049 C.3       12 UNK        -0.0855 
      7 S7         29.5657   -3.8497   -0.9236 S.3       12 UNK        -0.2931 
      8 C8         30.6649   -4.9791   -1.8382 C.3       12 UNK         0.0378 
      9 C9         30.9453   -4.4910   -3.2542 C.ar      12 UNK        -0.0802 
     10 C10        32.0488   -3.6707   -3.5103 C.ar      12 UNK        -0.0944 
     11 C11        32.3440   -3.2601   -4.8141 C.ar      12 UNK        -0.0787 
     12 C12        31.4938   -3.6475   -5.8563 C.ar      12 UNK        -0.0862 
     13 C13        30.3687   -4.4434   -5.6172 C.ar      12 UNK        -0.0733 
     14 C14        30.1247   -4.8905   -4.3140 C.ar      12 UNK        -0.0832 
     15 C15        29.4825   -4.8389   -6.8009 C.3       12 UNK         0.0240 
     16 S16        27.7511   -5.2909   -6.4076 S.3       12 UNK        -0.2522 
     17 C17        27.0578   -3.7778   -5.6578 C.3       12 UNK        -0.0967 
     18 CA         26.6817   -2.6845   -6.6956 C.3       5 UNK         0.0660 
     19 N          25.4142   -2.0100   -6.3846 N.am      5 UNK        -0.4015 
     20 C          24.7934   -1.1472   -7.2054 C.2       4 UNK         0.4946 
     21 O          25.2081   -0.8419   -8.3237 O.2       4 UNK        -0.5353 
     22 CA         23.5008   -0.4862   -6.6931 C.3       4 UNK         0.0277 
     23 CB         22.2923   -1.4000   -6.9534 C.3       4 UNK        -0.1981 
     24 N          23.5189   -0.0894   -5.2802 N.am      4 UNK        -0.4209 
     25 C          24.4318    0.7044   -4.7022 C.2       3 UNK         0.4942 
     26 O          25.4333    1.1258   -5.2808 O.2       3 UNK        -0.5208 
     27 CA         24.2260    1.0784   -3.2286 C.3       3 UNK         0.0250 
     28 CB         22.9804    0.4544   -2.5630 C.3       3 UNK        -0.1990 
     29 N          25.4296    0.6622   -2.5280 N.am      3 UNK        -0.4232 
     30 C          25.9696    1.2039   -1.4366 C.2       2 UNK         0.4993 
     31 O          25.4785    2.1575   -0.8294 O.2       2 UNK        -0.5286 
     32 CA         27.2786    0.5469   -0.9442 C.3       2 UNK         0.0209 
     33 CB         27.7982    1.1698    0.3652 C.3       2 UNK        -0.1931 
     34 N          27.1542   -0.9043   -0.7602 N.am      2 UNK        -0.4546 
     35 C          27.0371   -1.8283   -1.7253 C.2       1 UNK         0.5154 
     36 O          27.0530   -1.5710   -2.9359 O.2       1 UNK        -0.5181 
     37 C          27.8178   -1.6600   -6.8542 C.2       5 UNK         0.5014 
     38 O          28.4385   -1.5917   -7.9161 O.2       5 UNK        -0.5248 
     39 N          28.0372   -0.8603   -5.8005 N.am      6 UNK        -0.4434 
     40 CA         29.0540    0.1871   -5.7626 C.3       6 UNK         0.0363 
     41 CB         29.1283    0.7884   -4.3531 C.3       6 UNK        -0.1936 
     42 C          28.8388    1.2878   -6.8098 C.2       6 UNK         0.5081 
     43 O          29.8225    1.7695   -7.3671 O.2       6 UNK        -0.5248 
     44 N          27.5778    1.6477   -7.0828 N.am      7 UNK        -0.4718 
     45 CA         27.1996    2.5982   -8.1297 C.3       7 UNK         0.0273 
     46 CB         25.7051    2.9361   -8.0117 C.3       7 UNK        -0.1935 
     47 C          27.5341    2.0912   -9.5420 C.2       7 UNK         0.5018 
     48 O          28.0723    2.8579  -10.3411 O.2       7 UNK        -0.5186 
     49 N          27.2308    0.8145   -9.8200 N.am      8 UNK        -0.4240 
     50 CA         27.5268    0.1603  -11.0968 C.3       8 UNK         0.0235 
     51 CB         26.7506   -1.1629  -11.1952 C.3       8 UNK        -0.2000 
     52 C          29.0304   -0.0776  -11.3076 C.2       8 UNK         0.4941 
     53 O          29.5360    0.1789  -12.4010 O.2       8 UNK        -0.5273 
     54 N          29.7151   -0.5635  -10.2641 N.am      9 UNK        -0.4262 
     55 CA         31.1437   -0.8882  -10.2902 C.3       9 UNK         0.0264 
     56 CB         31.4292   -1.9102   -9.1825 C.3       9 UNK        -0.1955 
     57 C          32.0721    0.3321  -10.1449 C.2       9 UNK         0.5031 
     58 O          33.2656    0.1998  -10.4203 O.2       9 UNK        -0.5390 
     59 N          31.5252    1.4754   -9.7062 N.am      10 UNK        -0.4204 
     60 CA         32.2151    2.7245   -9.3601 C.3       10 UNK         0.0237 
     61 CB         32.9206    3.3448  -10.5858 C.3       10 UNK        -0.1985 
     62 C          33.1358    2.5644   -8.1324 C.2       10 UNK         0.4970 
     63 O          34.2508    3.0900   -8.1219 O.2       10 UNK        -0.4914 
     64 N          32.6380    1.8498   -7.1152 N.am      11 UNK        -0.4285 
     65 CA         33.2963    1.6592   -5.8111 C.3       11 UNK         0.1007 
     66 C          33.0027    2.8056   -4.8015 C.2       11 UNK         0.5703 
     67 N          32.0588    3.7026   -5.0661 N.am      11 UNK        -0.7361 
     68 O          33.6525    2.8890   -3.7622 O.2       11 UNK        -0.4986 
     69 C69        32.9771    0.2748   -5.1821 C.3       12 UNK        -0.0947 
     70 S70        33.4442   -1.1078   -6.2724 S.3       12 UNK        -0.2240 
     71 C71        33.6332   -2.4887   -5.0947 C.3       12 UNK         0.0194 
     72 H72        22.4721   -4.4214   -1.2954 H         1 UNK         0.0906 
     73 H73        22.5105   -3.1086   -2.4739 H         1 UNK         0.0906 
     74 H74        23.3625   -4.6174   -2.8059 H         1 UNK         0.0906 
     75 H75        25.5696   -4.4509   -2.4936 H         1 UNK         0.3140 
     76 H76        26.7774   -3.2995   -0.1656 H         1 UNK         0.1085 
     77 H77        27.7068   -5.2529   -1.4630 H         1 UNK         0.0836 
     78 H78        28.0615   -4.1764   -2.7859 H         1 UNK         0.0836 
     79 H79        31.6032   -5.0727   -1.2892 H         1 UNK         0.0731 
     80 H80        30.2286   -5.9791   -1.8588 H         1 UNK         0.0731 
     81 H81        32.6997   -3.3837   -2.6956 H         1 UNK         0.1312 
     82 H82        31.7268   -3.3499   -6.8673 H         1 UNK         0.1406 
     83 H83        29.2928   -5.5520   -4.1190 H         1 UNK         0.1631 
     84 H84        29.9469   -5.6922   -7.2966 H         1 UNK         0.0717 
     85 H85        29.4684   -4.0364   -7.5385 H         1 UNK         0.0717 
     86 H86        26.1675   -4.0989   -5.1155 H         1 UNK         0.0934 
     87 H87        27.7363   -3.4062   -4.8893 H         1 UNK         0.0934 
     88 H88        26.5381   -3.1603   -7.6685 H         1 UNK         0.0739 
     89 H89        25.0113   -2.1830   -5.4764 H         1 UNK         0.3093 
     90 H90        23.3606    0.4275   -7.2742 H         1 UNK         0.0818 
     91 H91        21.3544   -0.8952   -6.7212 H         1 UNK         0.0819 
     92 H92        22.2454   -1.6954   -8.0028 H         1 UNK         0.0819 
     93 H93        22.3388   -2.3138   -6.3598 H         1 UNK         0.0819 
     94 H94        22.7346   -0.3904   -4.7202 H         1 UNK         0.3041 
     95 H95        24.1439    2.1663   -3.1854 H         1 UNK         0.0784 
     96 H96        22.0623    0.7632   -3.0645 H         1 UNK         0.0793 
     97 H97        23.0199   -0.6351   -2.5619 H         1 UNK         0.0793 
     98 H98        22.8943    0.7748   -1.5245 H         1 UNK         0.0793 
     99 H99        25.9348   -0.1146   -2.9489 H         1 UNK         0.3024 
    100 H100       28.0317    0.7277   -1.7116 H         1 UNK         0.1171 
    101 H101       27.0932    1.0307    1.1858 H         1 UNK         0.0786 
    102 H102       27.9596    2.2428    0.2516 H         1 UNK         0.0786 
    103 H103       28.7516    0.7324    0.6624 H         1 UNK         0.0786 
    104 H104       27.0806   -1.2141    0.1982 H         1 UNK         0.2977 
    105 H105       27.4931   -0.9954   -4.9561 H         1 UNK         0.3127 
    106 H106       30.0065   -0.2936   -5.9906 H         1 UNK         0.0770 
    107 H107       29.3890    0.0289   -3.6157 H         1 UNK         0.0814 
    108 H108       28.1773    1.2370   -4.0637 H         1 UNK         0.0814 
    109 H109       29.8876    1.5698   -4.2981 H         1 UNK         0.0814 
    110 H110       26.8231    1.2557   -6.5226 H         1 UNK         0.2983 
    111 H111       27.7695    3.5155   -7.9656 H         1 UNK         0.0947 
    112 H112       25.4062    3.6597   -8.7713 H         1 UNK         0.0806 
    113 H113       25.4735    3.3712   -7.0394 H         1 UNK         0.0806 
    114 H114       25.0808    2.0512   -8.1383 H         1 UNK         0.0806 
    115 H115       26.7609    0.2519   -9.1163 H         1 UNK         0.3000 
    116 H116       27.1798    0.8151  -11.8992 H         1 UNK         0.0850 
    117 H117       26.9533   -1.6675  -12.1407 H         1 UNK         0.0810 
    118 H118       25.6749   -0.9945  -11.1408 H         1 UNK         0.0810 
    119 H119       27.0198   -1.8498  -10.3915 H         1 UNK         0.0810 
    120 H120       29.2094   -0.7973   -9.4099 H         1 UNK         0.3040 
    121 H121       31.3759   -1.3570  -11.2489 H         1 UNK         0.0766 
    122 H122       32.4833   -2.1906   -9.1637 H         1 UNK         0.0812 
    123 H123       30.8511   -2.8228   -9.3265 H         1 UNK         0.0812 
    124 H124       31.1778   -1.5039   -8.2024 H         1 UNK         0.0812 
    125 H125       30.5458    1.4492   -9.4491 H         1 UNK         0.3205 
    126 H126       31.4310    3.4193   -9.0551 H         1 UNK         0.0754 
    127 H127       33.2976    4.3416  -10.3541 H         1 UNK         0.0769 
    128 H128       32.2355    3.4455  -11.4276 H         1 UNK         0.0769 
    129 H129       33.7710    2.7466  -10.9140 H         1 UNK         0.0769 
    130 H130       31.6760    1.5319   -7.1884 H         1 UNK         0.2981 
    131 H131       34.3752    1.6870   -5.9749 H         1 UNK         0.0541 
    132 H132       31.5160    3.6402   -5.9125 H         1 UNK         0.3459 
    133 H133       31.8855    4.4445   -4.4068 H         1 UNK         0.3459 
    134 H134       33.5180    0.1617   -4.2409 H         1 UNK         0.0612 
    135 H135       31.9211    0.1879   -4.9342 H         1 UNK         0.0612 
    136 H136       34.3545   -3.1902   -5.5152 H         1 UNK         0.0624 
    137 H137       34.0775   -2.1186   -4.1697 H         1 UNK         0.0624 
@<TRIPOS>BOND
     1    1    2 1    
     2    1   72 1    
     3    1   73 1    
     4    1   74 1    
     5    2    3 2    
     6    2    4 am   BACKBONE|DICT|INTERRES
     7    4    5 1    
     8    4   75 1    
     9    5    6 1    
    10    5   35 1    
    11    5   76 1    
    12    6    7 1    
    13    6   77 1    
    14    6   78 1    
    15    7    8 1    
    16    8    9 1    
    17    8   79 1    
    18    8   80 1    
    19    9   10 ar   
    20    9   14 ar   
    21   10   11 ar   
    22   10   81 1    
    23   11   12 ar   
    24   11   71 1    
    25   12   13 ar   
    26   12   82 1    
    27   13   14 ar   
    28   13   15 1    
    29   14   83 1    
    30   15   16 1    
    31   15   84 1    
    32   15   85 1    
    33   16   17 1    
    34   17   18 1    
    35   17   86 1    
    36   17   87 1    
    37   18   19 1    
    38   18   37 1    
    39   18   88 1    
    40   19   20 am   BACKBONE|DICT|INTERRES
    41   19   89 1    
    42   20   21 2    
    43   20   22 1    
    44   22   23 1    
    45   22   24 1    
    46   22   90 1    
    47   23   91 1    
    48   23   92 1    
    49   23   93 1    
    50   24   25 am   BACKBONE|DICT|INTERRES
    51   24   94 1    
    52   25   26 2    
    53   25   27 1    
    54   27   28 1    
    55   27   29 1    
    56   27   95 1    
    57   28   96 1    
    58   28   97 1    
    59   28   98 1    
    60   29   30 am   BACKBONE|DICT|INTERRES
    61   29   99 1    
    62   30   31 2    
    63   30   32 1    
    64   32   33 1    
    65   32   34 1    
    66   32  100 1    
    67   33  101 1    
    68   33  102 1    
    69   33  103 1    
    70   34   35 am   BACKBONE|DICT|INTERRES
    71   34  104 1    
    72   35   36 2    
    73   37   38 2    
    74   37   39 am   BACKBONE|DICT|INTERRES
    75   39   40 1    
    76   39  105 1    
    77   40   41 1    
    78   40   42 1    
    79   40  106 1    
    80   41  107 1    
    81   41  108 1    
    82   41  109 1    
    83   42   43 2    
    84   42   44 am   BACKBONE|DICT|INTERRES
    85   44   45 1    
    86   44  110 1    
    87   45   46 1    
    88   45   47 1    
    89   45  111 1    
    90   46  112 1    
    91   46  113 1    
    92   46  114 1    
    93   47   48 2    
    94   47   49 am   BACKBONE|DICT|INTERRES
    95   49   50 1    
    96   49  115 1    
    97   50   51 1    
    98   50   52 1    
    99   50  116 1    
   100   51  117 1    
   101   51  118 1    
   102   51  119 1    
   103   52   53 2    
   104   52   54 am   BACKBONE|DICT|INTERRES
   105   54   55 1    
   106   54  120 1    
   107   55   56 1    
   108   55   57 1    
   109   55  121 1    
   110   56  122 1    
   111   56  123 1    
   112   56  124 1    
   113   57   58 2    
   114   57   59 am   BACKBONE|DICT|INTERRES
   115   59   60 1    
   116   59  125 1    
   117   60   61 1    
   118   60   62 1    
   119   60  126 1    
   120   61  127 1    
   121   61  128 1    
   122   61  129 1    
   123   62   63 2    
   124   62   64 am   BACKBONE|DICT|INTERRES
   125   64   65 1    
   126   64  130 1    
   127   65   66 1    
   128   65   69 1    
   129   65  131 1    
   130   66   67 am   BACKBONE|DICT|INTERRES
   131   66   68 2    
   132   67  132 1    
   133   67  133 1    
   134   69   70 1    
   135   69  134 1    
   136   69  135 1    
   137   70   71 1    
   138   71  136 1    
   139   71  137 1    
@<TRIPOS>SUBSTRUCTURE
     1 UNK         1 GROUP             0       ****    0 ROOT    
