@<TRIPOS>MOLECULE
3R137
137   139    1
SMALL
USER_CHARGES


@<TRIPOS>ATOM
      1 CA         24.5021   -5.2184   -3.8862 C.3       0 UNK        -0.2020 
      2 C          24.9357   -5.0010   -2.4450 C.2       0 UNK         0.4855 
      3 O          24.3941   -5.6477   -1.5481 O.2       0 UNK        -0.5197 
      4 N          25.9110   -4.1123   -2.2104 N.am      1 UNK        -0.4892 
      5 CA         26.4585   -3.8362   -0.8730 C.3       1 UNK         0.0835 
      6 C6         27.9700   -3.5053   -0.9190 C.3       12 UNK        -0.0855 
      7 S7         28.3943   -2.0224   -1.8965 S.3       12 UNK        -0.2931 
      8 C8         30.2117   -2.1870   -1.9719 C.3       12 UNK         0.0378 
      9 C9         30.7316   -2.7465   -3.2956 C.ar      12 UNK        -0.0802 
     10 C10        31.9177   -2.2358   -3.8338 C.ar      12 UNK        -0.0944 
     11 C11        32.4398   -2.7453   -5.0260 C.ar      12 UNK        -0.0787 
     12 C12        31.7581   -3.7673   -5.6941 C.ar      12 UNK        -0.0862 
     13 C13        30.5771   -4.2964   -5.1652 C.ar      12 UNK        -0.0733 
     14 C14        30.0735   -3.7854   -3.9651 C.ar      12 UNK        -0.0832 
     15 C15        29.8769   -5.4576   -5.8604 C.3       12 UNK         0.0240 
     16 S16        28.8851   -4.9311   -7.2941 S.3       12 UNK        -0.2522 
     17 C17        27.4876   -4.0710   -6.4945 C.3       12 UNK        -0.0967 
     18 CA         27.0568   -2.7880   -7.2535 C.3       5 UNK         0.0660 
     19 N          25.7508   -2.2518   -6.8560 N.am      5 UNK        -0.4015 
     20 C          25.3607   -1.9129   -5.6221 C.2       4 UNK         0.4946 
     21 O          25.9977   -2.1732   -4.5961 O.2       4 UNK        -0.5353 
     22 CA         24.0423   -1.1274   -5.5231 C.3       4 UNK         0.0277 
     23 CB         22.8684   -2.0753   -5.2343 C.3       4 UNK        -0.1981 
     24 N          24.1051   -0.1168   -4.4687 N.am      4 UNK        -0.4209 
     25 C          25.0059    0.8694   -4.3749 C.2       3 UNK         0.4942 
     26 O          25.7922    1.1608   -5.2766 O.2       3 UNK        -0.5208 
     27 CA         25.0853    1.6237   -3.0339 C.3       3 UNK         0.0250 
     28 CB         24.1279    2.8311   -3.0118 C.3       3 UNK        -0.1990 
     29 N          24.9193    0.7569   -1.8520 N.am      3 UNK        -0.4232 
     30 C          23.8215    0.1060   -1.4372 C.2       2 UNK         0.4993 
     31 O          22.7250    0.1804   -1.9940 O.2       2 UNK        -0.5286 
     32 CA         24.0267   -0.8912   -0.2939 C.3       2 UNK         0.0209 
     33 CB         22.7040   -1.4335    0.2851 C.3       2 UNK        -0.1931 
     34 N          24.8313   -1.9907   -0.8194 N.am      2 UNK        -0.4546 
     35 C          25.6556   -2.7640   -0.1049 C.2       1 UNK         0.5154 
     36 O          25.8006   -2.6569    1.1143 O.2       1 UNK        -0.5181 
     37 C          28.1313   -1.6822   -7.2535 C.2       5 UNK         0.5014 
     38 O          28.7102   -1.4257   -8.3093 O.2       5 UNK        -0.5248 
     39 N          28.3392   -1.0091   -6.1117 N.am      6 UNK        -0.4434 
     40 CA         29.3266    0.0617   -5.9385 C.3       6 UNK         0.0363 
     41 CB         29.2983    0.5888   -4.4971 C.3       6 UNK        -0.1936 
     42 C          29.1644    1.2279   -6.9236 C.2       6 UNK         0.5081 
     43 O          30.1537    1.6524   -7.5183 O.2       6 UNK        -0.5248 
     44 N          27.9275    1.7088   -7.1032 N.am      7 UNK        -0.4718 
     45 CA         27.5938    2.7872   -8.0381 C.3       7 UNK         0.0273 
     46 CB         26.1627    3.2748   -7.7623 C.3       7 UNK        -0.1935 
     47 C          27.7511    2.3904   -9.5168 C.2       7 UNK         0.5018 
     48 O          28.0529    3.2549  -10.3397 O.2       7 UNK        -0.5186 
     49 N          27.5502    1.1023   -9.8280 N.am      8 UNK        -0.4240 
     50 CA         27.7010    0.5434  -11.1730 C.3       8 UNK         0.0235 
     51 CB         26.8854   -0.7552  -11.2909 C.3       8 UNK        -0.2000 
     52 C          29.1765    0.3005  -11.5234 C.2       8 UNK         0.4941 
     53 O          29.6052    0.6491  -12.6237 O.2       8 UNK        -0.5273 
     54 N          29.9272   -0.2780  -10.5767 N.am      9 UNK        -0.4262 
     55 CA         31.3585   -0.5643  -10.6964 C.3       9 UNK         0.0264 
     56 CB         31.7204   -1.6633   -9.6851 C.3       9 UNK        -0.1955 
     57 C          32.2586    0.6741  -10.5137 C.2       9 UNK         0.5031 
     58 O          33.4420    0.5990  -10.8480 O.2       9 UNK        -0.5390 
     59 N          31.6918    1.7745   -9.9958 N.am      10 UNK        -0.4204 
     60 CA         32.3345    3.0495   -9.6547 C.3       10 UNK         0.0237 
     61 CB         32.9277    3.7390  -10.9024 C.3       10 UNK        -0.1985 
     62 C          33.3383    2.8997   -8.4954 C.2       10 UNK         0.4970 
     63 O          34.4470    3.4351   -8.5572 O.2       10 UNK        -0.4914 
     64 N          32.9168    2.1715   -7.4556 N.am      11 UNK        -0.4285 
     65 CA         33.6853    1.9167   -6.2271 C.3       11 UNK         0.1007 
     66 C          33.6161    3.0735   -5.1890 C.2       11 UNK         0.5703 
     67 N          32.7625    4.0766   -5.3616 N.am      11 UNK        -0.7361 
     68 O          34.3612    3.0662   -4.2120 O.2       11 UNK        -0.4986 
     69 C69        33.2939    0.5625   -5.5789 C.3       12 UNK        -0.0947 
     70 S70        33.5488   -0.8404   -6.7153 S.3       12 UNK        -0.2240 
     71 C71        33.7667   -2.2304   -5.5659 C.3       12 UNK         0.0194 
     72 H72        24.5773   -6.2748   -4.1422 H         1 UNK         0.0906 
     73 H73        23.4657   -4.9117   -4.0197 H         1 UNK         0.0906 
     74 H74        25.1206   -4.6627   -4.5868 H         1 UNK         0.0906 
     75 H75        26.2816   -3.5479   -2.9701 H         1 UNK         0.3140 
     76 H76        26.3674   -4.7452   -0.2735 H         1 UNK         0.1085 
     77 H77        28.3569   -3.3712    0.0933 H         1 UNK         0.0836 
     78 H78        28.5106   -4.3620   -1.3231 H         1 UNK         0.0836 
     79 H79        30.6371   -1.1980   -1.7948 H         1 UNK         0.0731 
     80 H80        30.5678   -2.8167   -1.1556 H         1 UNK         0.0731 
     81 H81        32.4483   -1.4486   -3.3158 H         1 UNK         0.1312 
     82 H82        32.1582   -4.1673   -6.6159 H         1 UNK         0.1406 
     83 H83        29.1689   -4.2047   -3.5499 H         1 UNK         0.1631 
     84 H84        29.2387   -6.0001   -5.1609 H         1 UNK         0.0717 
     85 H85        30.6255   -6.1743   -6.2010 H         1 UNK         0.0717 
     86 H86        26.6545   -4.7738   -6.4607 H         1 UNK         0.0934 
     87 H87        27.7317   -3.8456   -5.4574 H         1 UNK         0.0934 
     88 H88        26.9211   -3.0748   -8.2980 H         1 UNK         0.0739 
     89 H89        25.1461   -2.0033   -7.6263 H         1 UNK         0.3093 
     90 H90        23.8623   -0.6107   -6.4679 H         1 UNK         0.0818 
     91 H91        21.9176   -1.5421   -5.2502 H         1 UNK         0.0819 
     92 H92        22.8066   -2.8689   -5.9802 H         1 UNK         0.0819 
     93 H93        22.9667   -2.5482   -4.2567 H         1 UNK         0.0819 
     94 H94        23.4809   -0.2357   -3.6761 H         1 UNK         0.3041 
     95 H95        26.1015    2.0156   -2.9654 H         1 UNK         0.0784 
     96 H96        24.3519    3.5155   -3.8312 H         1 UNK         0.0793 
     97 H97        23.0850    2.5321   -3.1196 H         1 UNK         0.0793 
     98 H98        24.2218    3.3946   -2.0836 H         1 UNK         0.0793 
     99 H99        25.7790    0.5611   -1.3565 H         1 UNK         0.3024 
    100 H100       24.5717   -0.3767    0.5013 H         1 UNK         0.1171 
    101 H101       22.0699   -0.6194    0.6385 H         1 UNK         0.0786 
    102 H102       22.8838   -2.0950    1.1326 H         1 UNK         0.0786 
    103 H103       22.1362   -1.9928   -0.4596 H         1 UNK         0.0786 
    104 H104       24.7980   -2.1346   -1.8200 H         1 UNK         0.2977 
    105 H105       27.7810   -1.2626   -5.3032 H         1 UNK         0.3127 
    106 H106       30.3056   -0.3848   -6.1228 H         1 UNK         0.0770 
    107 H107       28.3035    0.9251   -4.2049 H         1 UNK         0.0814 
    108 H108       29.9799    1.4313   -4.3710 H         1 UNK         0.0814 
    109 H109       29.6116   -0.1788   -3.7963 H         1 UNK         0.0814 
    110 H110       27.1704    1.3518   -6.5217 H         1 UNK         0.2983 
    111 H111       28.2789    3.6170   -7.8505 H         1 UNK         0.0947 
    112 H112       25.8901    4.0914   -8.4323 H         1 UNK         0.0806 
    113 H113       26.0611    3.6453   -6.7419 H         1 UNK         0.0806 
    114 H114       25.4314    2.4776   -7.9013 H         1 UNK         0.0806 
    115 H115       27.3645    0.4538   -9.0763 H         1 UNK         0.3000 
    116 H116       27.2995    1.2583  -11.8950 H         1 UNK         0.0850 
    117 H117       26.9623   -1.1710  -12.2964 H         1 UNK         0.0810 
    118 H118       25.8278   -0.5778  -11.0952 H         1 UNK         0.0810 
    119 H119       27.2316   -1.5211  -10.5963 H         1 UNK         0.0810 
    120 H120       29.4783   -0.5852   -9.7135 H         1 UNK         0.3040 
    121 H121       31.5501   -0.9523  -11.6990 H         1 UNK         0.0766 
    122 H122       32.7878   -1.8871   -9.7050 H         1 UNK         0.0812 
    123 H123       31.1888   -2.5903   -9.9005 H         1 UNK         0.0812 
    124 H124       31.4639   -1.3667   -8.6678 H         1 UNK         0.0812 
    125 H125       30.7356    1.6823   -9.6758 H         1 UNK         0.3205 
    126 H126       31.5368    3.6921   -9.2788 H         1 UNK         0.0754 
    127 H127       33.2752    4.7446  -10.6625 H         1 UNK         0.0769 
    128 H128       32.1837    3.8335  -11.6934 H         1 UNK         0.0769 
    129 H129       33.7794    3.1910  -11.3060 H         1 UNK         0.0769 
    130 H130       31.9642    1.8131   -7.4730 H         1 UNK         0.2981 
    131 H131       34.7379    1.8426   -6.5072 H         1 UNK         0.0541 
    132 H132       32.1453    4.0902   -6.1570 H         1 UNK         0.3459 
    133 H133       32.7336    4.8223   -4.6844 H         1 UNK         0.3459 
    134 H134       32.2521    0.5737   -5.2591 H         1 UNK         0.0612 
    135 H135       33.8896    0.3882   -4.6812 H         1 UNK         0.0612 
    136 H136       34.2823   -3.0340   -6.0936 H         1 UNK         0.0624 
    137 H137       34.4270   -1.9380   -4.7482 H         1 UNK         0.0624 
@<TRIPOS>BOND
     1    1    2 1    
     2    1   72 1    
     3    1   73 1    
     4    1   74 1    
     5    2    3 2    
     6    2    4 am   BACKBONE|DICT|INTERRES
     7    4    5 1    
     8    4   75 1    
     9    5    6 1    
    10    5   35 1    
    11    5   76 1    
    12    6    7 1    
    13    6   77 1    
    14    6   78 1    
    15    7    8 1    
    16    8    9 1    
    17    8   79 1    
    18    8   80 1    
    19    9   10 ar   
    20    9   14 ar   
    21   10   11 ar   
    22   10   81 1    
    23   11   12 ar   
    24   11   71 1    
    25   12   13 ar   
    26   12   82 1    
    27   13   14 ar   
    28   13   15 1    
    29   14   83 1    
    30   15   16 1    
    31   15   84 1    
    32   15   85 1    
    33   16   17 1    
    34   17   18 1    
    35   17   86 1    
    36   17   87 1    
    37   18   19 1    
    38   18   37 1    
    39   18   88 1    
    40   19   20 am   BACKBONE|DICT|INTERRES
    41   19   89 1    
    42   20   21 2    
    43   20   22 1    
    44   22   23 1    
    45   22   24 1    
    46   22   90 1    
    47   23   91 1    
    48   23   92 1    
    49   23   93 1    
    50   24   25 am   BACKBONE|DICT|INTERRES
    51   24   94 1    
    52   25   26 2    
    53   25   27 1    
    54   27   28 1    
    55   27   29 1    
    56   27   95 1    
    57   28   96 1    
    58   28   97 1    
    59   28   98 1    
    60   29   30 am   BACKBONE|DICT|INTERRES
    61   29   99 1    
    62   30   31 2    
    63   30   32 1    
    64   32   33 1    
    65   32   34 1    
    66   32  100 1    
    67   33  101 1    
    68   33  102 1    
    69   33  103 1    
    70   34   35 am   BACKBONE|DICT|INTERRES
    71   34  104 1    
    72   35   36 2    
    73   37   38 2    
    74   37   39 am   BACKBONE|DICT|INTERRES
    75   39   40 1    
    76   39  105 1    
    77   40   41 1    
    78   40   42 1    
    79   40  106 1    
    80   41  107 1    
    81   41  108 1    
    82   41  109 1    
    83   42   43 2    
    84   42   44 am   BACKBONE|DICT|INTERRES
    85   44   45 1    
    86   44  110 1    
    87   45   46 1    
    88   45   47 1    
    89   45  111 1    
    90   46  112 1    
    91   46  113 1    
    92   46  114 1    
    93   47   48 2    
    94   47   49 am   BACKBONE|DICT|INTERRES
    95   49   50 1    
    96   49  115 1    
    97   50   51 1    
    98   50   52 1    
    99   50  116 1    
   100   51  117 1    
   101   51  118 1    
   102   51  119 1    
   103   52   53 2    
   104   52   54 am   BACKBONE|DICT|INTERRES
   105   54   55 1    
   106   54  120 1    
   107   55   56 1    
   108   55   57 1    
   109   55  121 1    
   110   56  122 1    
   111   56  123 1    
   112   56  124 1    
   113   57   58 2    
   114   57   59 am   BACKBONE|DICT|INTERRES
   115   59   60 1    
   116   59  125 1    
   117   60   61 1    
   118   60   62 1    
   119   60  126 1    
   120   61  127 1    
   121   61  128 1    
   122   61  129 1    
   123   62   63 2    
   124   62   64 am   BACKBONE|DICT|INTERRES
   125   64   65 1    
   126   64  130 1    
   127   65   66 1    
   128   65   69 1    
   129   65  131 1    
   130   66   67 am   BACKBONE|DICT|INTERRES
   131   66   68 2    
   132   67  132 1    
   133   67  133 1    
   134   69   70 1    
   135   69  134 1    
   136   69  135 1    
   137   70   71 1    
   138   71  136 1    
   139   71  137 1    
@<TRIPOS>SUBSTRUCTURE
     1 UNK         1 GROUP             0       ****    0 ROOT    
