@<TRIPOS>MOLECULE
3R137
137   139    1
SMALL
USER_CHARGES


@<TRIPOS>ATOM
      1 CA         30.0712   -3.4077   -4.7222 C.3       0 UNK        -0.2020 
      2 C          29.1768   -4.3428   -3.9266 C.2       0 UNK         0.4855 
      3 O          28.5596   -5.2372   -4.5044 O.2       0 UNK        -0.5197 
      4 N          29.0977   -4.1407   -2.6051 N.am      1 UNK        -0.4892 
      5 CA         28.2938   -4.9533   -1.6800 C.3       1 UNK         0.0835 
      6 C6         28.7943   -4.8445   -0.2173 C.3       12 UNK        -0.0855 
      7 S7         30.4534   -5.5820   -0.0066 S.3       12 UNK        -0.2931 
      8 C8         31.4399   -4.1916    0.6323 C.3       12 UNK         0.0378 
      9 C9         31.7819   -3.1906   -0.4599 C.ar      12 UNK        -0.0802 
     10 C10        32.8765   -3.4140   -1.3045 C.ar      12 UNK        -0.0944 
     11 C11        33.1972   -2.4913   -2.3056 C.ar      12 UNK        -0.0787 
     12 C12        32.4168   -1.3443   -2.4542 C.ar      12 UNK        -0.0862 
     13 C13        31.3051   -1.1285   -1.6401 C.ar      12 UNK        -0.0733 
     14 C14        31.0025   -2.0420   -0.6284 C.ar      12 UNK        -0.0832 
     15 C15        30.3991    0.0578   -1.9050 C.3       12 UNK         0.0240 
     16 S16        29.0488   -0.4601   -3.0028 S.3       12 UNK        -0.2522 
     17 C17        28.3131    1.1354   -3.4716 C.3       12 UNK        -0.0967 
     18 CA         28.2261    1.3048   -5.0090 C.3       5 UNK         0.0660 
     19 N          27.3856    0.2758   -5.6313 N.am      5 UNK        -0.4015 
     20 C          27.2370    0.0902   -6.9529 C.2       4 UNK         0.4946 
     21 O          27.8871    0.6906   -7.8090 O.2       4 UNK        -0.5353 
     22 CA         26.1524   -0.9013   -7.4184 C.3       4 UNK         0.0277 
     23 CB         26.7772   -2.2741   -7.7100 C.3       4 UNK        -0.1981 
     24 N          25.0445   -1.0642   -6.4742 N.am      4 UNK        -0.4209 
     25 C          24.2819   -0.0780   -5.9789 C.2       3 UNK         0.4942 
     26 O          24.3362    1.0861   -6.3772 O.2       3 UNK        -0.5208 
     27 CA         23.3604   -0.4196   -4.7903 C.3       3 UNK         0.0250 
     28 CB         21.8944   -0.4574   -5.2499 C.3       3 UNK        -0.1990 
     29 N          23.6773   -1.6700   -4.0808 N.am      3 UNK        -0.4232 
     30 C          24.8574   -2.0021   -3.5332 C.2       2 UNK         0.4993 
     31 O          25.8545   -1.2768   -3.5752 O.2       2 UNK        -0.5286 
     32 CA         24.9507   -3.3967   -2.8951 C.3       2 UNK         0.0209 
     33 CB         24.4097   -4.4905   -3.8470 C.3       2 UNK        -0.1931 
     34 N          26.3451   -3.6807   -2.5502 N.am      2 UNK        -0.4546 
     35 C          26.7712   -4.6938   -1.7837 C.2       1 UNK         0.5154 
     36 O          26.0013   -5.4430   -1.1791 O.2       1 UNK        -0.5181 
     37 C          27.7349    2.7284   -5.3402 C.2       5 UNK         0.5014 
     38 O          28.5538    3.5958   -5.6449 O.2       5 UNK        -0.5248 
     39 N          26.4134    2.9444   -5.2671 N.am      6 UNK        -0.4434 
     40 CA         25.7684    4.2312   -5.5352 C.3       6 UNK         0.0363 
     41 CB         24.3914    4.2698   -4.8524 C.3       6 UNK        -0.1936 
     42 C          25.6364    4.5002   -7.0406 C.2       6 UNK         0.5081 
     43 O          25.8214    5.6380   -7.4724 O.2       6 UNK        -0.5248 
     44 N          25.3385    3.4467   -7.8135 N.am      7 UNK        -0.4718 
     45 CA         25.2361    3.4917   -9.2748 C.3       7 UNK         0.0273 
     46 CB         24.4935    2.2359   -9.7592 C.3       7 UNK        -0.1935 
     47 C          26.5960    3.6147   -9.9890 C.2       7 UNK         0.5018 
     48 O          26.6131    3.9601  -11.1709 O.2       7 UNK        -0.5186 
     49 N          27.6920    3.3064   -9.2765 N.am      8 UNK        -0.4240 
     50 CA         29.0747    3.1946   -9.7602 C.3       8 UNK         0.0235 
     51 CB         29.6188    4.5623  -10.2248 C.3       8 UNK        -0.2000 
     52 C          29.2226    2.0840  -10.8196 C.2       8 UNK         0.4941 
     53 O          29.9070    2.2684  -11.8278 O.2       8 UNK        -0.5273 
     54 N          28.5556    0.9514  -10.5650 N.am      9 UNK        -0.4262 
     55 CA         28.4950   -0.2190  -11.4441 C.3       9 UNK         0.0264 
     56 CB         27.0417   -0.7227  -11.4869 C.3       9 UNK        -0.1955 
     57 C          29.4504   -1.3413  -10.9992 C.2       9 UNK         0.5031 
     58 O          29.5380   -2.3604  -11.6862 O.2       9 UNK        -0.5390 
     59 N          30.1394   -1.1500   -9.8693 N.am      10 UNK        -0.4204 
     60 CA         31.1133   -2.0704   -9.2891 C.3       10 UNK         0.0237 
     61 CB         30.3905   -3.0877   -8.3830 C.3       10 UNK        -0.1985 
     62 C          32.1969   -1.2533   -8.5666 C.2       10 UNK         0.4970 
     63 O          32.3971   -0.0840   -8.9038 O.2       10 UNK        -0.4914 
     64 N          32.8784   -1.8719   -7.5941 N.am      11 UNK        -0.4285 
     65 CA         33.9584   -1.2710   -6.7919 C.3       11 UNK         0.1007 
     66 C          33.5527   -0.0808   -5.8697 C.2       11 UNK         0.5703 
     67 N          32.2739    0.2410   -5.7113 N.am      11 UNK        -0.7361 
     68 O          34.4208    0.5696   -5.2931 O.2       11 UNK        -0.4986 
     69 C69        34.7765   -2.3568   -6.0378 C.3       12 UNK        -0.0947 
     70 S70        33.7923   -3.3509   -4.8592 S.3       12 UNK        -0.2240 
     71 C71        34.3685   -2.7241   -3.2469 C.3       12 UNK         0.0194 
     72 H72        30.7780   -2.8862   -4.0799 H         1 UNK         0.0906 
     73 H73        30.6427   -3.9687   -5.4603 H         1 UNK         0.0906 
     74 H74        29.4662   -2.6628   -5.2370 H         1 UNK         0.0906 
     75 H75        29.6446   -3.4021   -2.1829 H         1 UNK         0.3140 
     76 H76        28.4165   -5.9963   -1.9817 H         1 UNK         0.1085 
     77 H77        28.1276   -5.3828    0.4595 H         1 UNK         0.0836 
     78 H78        28.7834   -3.8077    0.1198 H         1 UNK         0.0836 
     79 H79        32.3616   -4.5860    1.0628 H         1 UNK         0.0731 
     80 H80        30.9078   -3.7072    1.4527 H         1 UNK         0.0731 
     81 H81        33.4725   -4.3088   -1.1859 H         1 UNK         0.1312 
     82 H82        32.6533   -0.6355   -3.2324 H         1 UNK         0.1406 
     83 H83        30.1466   -1.8672    0.0094 H         1 UNK         0.1631 
     84 H84        30.9643    0.8692   -2.3665 H         1 UNK         0.0717 
     85 H85        29.9890    0.4464   -0.9716 H         1 UNK         0.0717 
     86 H86        27.3221    1.1941   -3.0167 H         1 UNK         0.0934 
     87 H87        28.8978    1.9443   -3.0286 H         1 UNK         0.0934 
     88 H88        29.2305    1.2026   -5.4255 H         1 UNK         0.0739 
     89 H89        26.8410   -0.2932   -4.9881 H         1 UNK         0.3093 
     90 H90        25.7298   -0.5122   -8.3447 H         1 UNK         0.0818 
     91 H91        27.5778   -2.1878   -8.4448 H         1 UNK         0.0819 
     92 H92        27.2035   -2.7254   -6.8128 H         1 UNK         0.0819 
     93 H93        26.0423   -2.9676   -8.1190 H         1 UNK         0.0819 
     94 H94        24.9227   -1.9852   -6.0809 H         1 UNK         0.3041 
     95 H95        23.4704    0.3926   -4.0690 H         1 UNK         0.0784 
     96 H96        21.6182    0.4701   -5.7543 H         1 UNK         0.0793 
     97 H97        21.7114   -1.2747   -5.9487 H         1 UNK         0.0793 
     98 H98        21.2151   -0.5767   -4.4056 H         1 UNK         0.0793 
     99 H99        22.9192   -2.3333   -4.0056 H         1 UNK         0.3024 
    100 H100       24.3589   -3.3813   -1.9773 H         1 UNK         0.1171 
    101 H101       24.4797   -5.4833   -3.4029 H         1 UNK         0.0786 
    102 H102       23.3572   -4.3386   -4.0873 H         1 UNK         0.0786 
    103 H103       24.9637   -4.5126   -4.7865 H         1 UNK         0.0786 
    104 H104       27.0202   -3.0475   -2.9622 H         1 UNK         0.2977 
    105 H105       25.7972    2.1607   -5.0961 H         1 UNK         0.3127 
    106 H106       26.3816    5.0265   -5.1053 H         1 UNK         0.0770 
    107 H107       23.7236    3.4983   -5.2376 H         1 UNK         0.0814 
    108 H108       23.9042    5.2321   -5.0156 H         1 UNK         0.0814 
    109 H109       24.4790    4.1305   -3.7748 H         1 UNK         0.0814 
    110 H110       25.1300    2.5596   -7.3617 H         1 UNK         0.2983 
    111 H111       24.6439    4.3676   -9.5489 H         1 UNK         0.0947 
    112 H112       24.3211    2.2755  -10.8357 H         1 UNK         0.0806 
    113 H113       23.5202    2.1366   -9.2779 H         1 UNK         0.0806 
    114 H114       25.0631    1.3300   -9.5561 H         1 UNK         0.0806 
    115 H115       27.5451    2.9941   -8.3256 H         1 UNK         0.3000 
    116 H116       29.6706    2.8773   -8.9026 H         1 UNK         0.0850 
    117 H117       30.6824    4.4988  -10.4577 H         1 UNK         0.0810 
    118 H118       29.5015    5.3190   -9.4492 H         1 UNK         0.0810 
    119 H119       29.1120    4.9190  -11.1219 H         1 UNK         0.0810 
    120 H120       28.0871    0.8743   -9.6639 H         1 UNK         0.3040 
    121 H121       28.7835    0.0646  -12.4583 H         1 UNK         0.0766 
    122 H122       26.3615    0.0597  -11.8245 H         1 UNK         0.0812 
    123 H123       26.7018   -1.0637  -10.5098 H         1 UNK         0.0812 
    124 H124       26.9379   -1.5604  -12.1778 H         1 UNK         0.0812 
    125 H125       30.0690   -0.2519   -9.4094 H         1 UNK         0.3205 
    126 H126       31.6181   -2.6107  -10.0927 H         1 UNK         0.0754 
    127 H127       31.0732   -3.8416   -7.9905 H         1 UNK         0.0769 
    128 H128       29.6189   -3.6254   -8.9344 H         1 UNK         0.0769 
    129 H129       29.9092   -2.5931   -7.5403 H         1 UNK         0.0769 
    130 H130       32.6450   -2.8252   -7.3607 H         1 UNK         0.2981 
    131 H131       34.6441   -0.8254   -7.5150 H         1 UNK         0.0541 
    132 H132       31.5560   -0.2764   -6.1885 H         1 UNK         0.3459 
    133 H133       32.0358    1.0290   -5.1324 H         1 UNK         0.3459 
    134 H134       35.6362   -1.9137   -5.5326 H         1 UNK         0.0612 
    135 H135       35.2036   -3.0496   -6.7642 H         1 UNK         0.0612 
    136 H136       35.0752   -3.4361   -2.8184 H         1 UNK         0.0624 
    137 H137       34.9122   -1.7866   -3.3708 H         1 UNK         0.0624 
@<TRIPOS>BOND
     1    1    2 1    
     2    1   72 1    
     3    1   73 1    
     4    1   74 1    
     5    2    3 2    
     6    2    4 am   BACKBONE|DICT|INTERRES
     7    4    5 1    
     8    4   75 1    
     9    5    6 1    
    10    5   35 1    
    11    5   76 1    
    12    6    7 1    
    13    6   77 1    
    14    6   78 1    
    15    7    8 1    
    16    8    9 1    
    17    8   79 1    
    18    8   80 1    
    19    9   10 ar   
    20    9   14 ar   
    21   10   11 ar   
    22   10   81 1    
    23   11   12 ar   
    24   11   71 1    
    25   12   13 ar   
    26   12   82 1    
    27   13   14 ar   
    28   13   15 1    
    29   14   83 1    
    30   15   16 1    
    31   15   84 1    
    32   15   85 1    
    33   16   17 1    
    34   17   18 1    
    35   17   86 1    
    36   17   87 1    
    37   18   19 1    
    38   18   37 1    
    39   18   88 1    
    40   19   20 am   BACKBONE|DICT|INTERRES
    41   19   89 1    
    42   20   21 2    
    43   20   22 1    
    44   22   23 1    
    45   22   24 1    
    46   22   90 1    
    47   23   91 1    
    48   23   92 1    
    49   23   93 1    
    50   24   25 am   BACKBONE|DICT|INTERRES
    51   24   94 1    
    52   25   26 2    
    53   25   27 1    
    54   27   28 1    
    55   27   29 1    
    56   27   95 1    
    57   28   96 1    
    58   28   97 1    
    59   28   98 1    
    60   29   30 am   BACKBONE|DICT|INTERRES
    61   29   99 1    
    62   30   31 2    
    63   30   32 1    
    64   32   33 1    
    65   32   34 1    
    66   32  100 1    
    67   33  101 1    
    68   33  102 1    
    69   33  103 1    
    70   34   35 am   BACKBONE|DICT|INTERRES
    71   34  104 1    
    72   35   36 2    
    73   37   38 2    
    74   37   39 am   BACKBONE|DICT|INTERRES
    75   39   40 1    
    76   39  105 1    
    77   40   41 1    
    78   40   42 1    
    79   40  106 1    
    80   41  107 1    
    81   41  108 1    
    82   41  109 1    
    83   42   43 2    
    84   42   44 am   BACKBONE|DICT|INTERRES
    85   44   45 1    
    86   44  110 1    
    87   45   46 1    
    88   45   47 1    
    89   45  111 1    
    90   46  112 1    
    91   46  113 1    
    92   46  114 1    
    93   47   48 2    
    94   47   49 am   BACKBONE|DICT|INTERRES
    95   49   50 1    
    96   49  115 1    
    97   50   51 1    
    98   50   52 1    
    99   50  116 1    
   100   51  117 1    
   101   51  118 1    
   102   51  119 1    
   103   52   53 2    
   104   52   54 am   BACKBONE|DICT|INTERRES
   105   54   55 1    
   106   54  120 1    
   107   55   56 1    
   108   55   57 1    
   109   55  121 1    
   110   56  122 1    
   111   56  123 1    
   112   56  124 1    
   113   57   58 2    
   114   57   59 am   BACKBONE|DICT|INTERRES
   115   59   60 1    
   116   59  125 1    
   117   60   61 1    
   118   60   62 1    
   119   60  126 1    
   120   61  127 1    
   121   61  128 1    
   122   61  129 1    
   123   62   63 2    
   124   62   64 am   BACKBONE|DICT|INTERRES
   125   64   65 1    
   126   64  130 1    
   127   65   66 1    
   128   65   69 1    
   129   65  131 1    
   130   66   67 am   BACKBONE|DICT|INTERRES
   131   66   68 2    
   132   67  132 1    
   133   67  133 1    
   134   69   70 1    
   135   69  134 1    
   136   69  135 1    
   137   70   71 1    
   138   71  136 1    
   139   71  137 1    
@<TRIPOS>SUBSTRUCTURE
     1 UNK         1 GROUP             0       ****    0 ROOT    
