@<TRIPOS>MOLECULE
3R137
137   139    1
SMALL
USER_CHARGES


@<TRIPOS>ATOM
      1 CA         25.9185   -5.1109    2.0842 C.3       0 UNK        -0.2020 
      2 C          27.0420   -5.1482    1.0514 C.2       0 UNK         0.4855 
      3 O          27.4753   -6.2329    0.6690 O.2       0 UNK        -0.5197 
      4 N          27.5522   -4.0051    0.5706 N.am      1 UNK        -0.4892 
      5 CA         27.1194   -2.6339    0.8793 C.3       1 UNK         0.0835 
      6 C6         28.2348   -1.6044    0.5453 C.3       12 UNK        -0.0855 
      7 S7         28.6128   -1.4445   -1.2393 S.3       12 UNK        -0.2931 
      8 C8         30.1067   -2.4659   -1.3981 C.3       12 UNK         0.0378 
      9 C9         30.3818   -2.8000   -2.8558 C.ar      12 UNK        -0.0802 
     10 C10        31.4065   -2.1531   -3.5501 C.ar      12 UNK        -0.0944 
     11 C11        31.6827   -2.4801   -4.8822 C.ar      12 UNK        -0.0787 
     12 C12        30.9212   -3.4698   -5.5178 C.ar      12 UNK        -0.0862 
     13 C13        29.8987   -4.1338   -4.8286 C.ar      12 UNK        -0.0733 
     14 C14        29.6295   -3.7852   -3.5015 C.ar      12 UNK        -0.0832 
     15 C15        29.1352   -5.2855   -5.4766 C.3       12 UNK         0.0240 
     16 S16        28.0845   -4.7877   -6.8788 S.3       12 UNK        -0.2522 
     17 C17        26.8486   -3.6950   -6.0934 C.3       12 UNK        -0.0967 
     18 CA         26.5657   -2.4374   -6.9524 C.3       5 UNK         0.0660 
     19 N          25.3768   -1.7061   -6.5084 N.am      5 UNK        -0.4015 
     20 C          24.7502   -0.7736   -7.2445 C.2       4 UNK         0.4946 
     21 O          25.0748   -0.4815   -8.3950 O.2       4 UNK        -0.5353 
     22 CA         23.5903   -0.0041   -6.5863 C.3       4 UNK         0.0277 
     23 CB         22.2635   -0.7519   -6.7918 C.3       4 UNK        -0.1981 
     24 N          23.7954    0.2458   -5.1586 N.am      4 UNK        -0.4209 
     25 C          24.8001    0.9713   -4.6466 C.2       3 UNK         0.4942 
     26 O          25.6165    1.5857   -5.3315 O.2       3 UNK        -0.5208 
     27 CA         24.9586    0.9687   -3.1156 C.3       3 UNK         0.0250 
     28 CB         24.2600    2.1930   -2.5025 C.3       3 UNK        -0.1990 
     29 N          24.4853   -0.2506   -2.4452 N.am      3 UNK        -0.4232 
     30 C          24.8893   -1.4985   -2.7249 C.2       2 UNK         0.4993 
     31 O          25.6567   -1.7834   -3.6480 O.2       2 UNK        -0.5286 
     32 CA         24.3687   -2.6159   -1.8094 C.3       2 UNK         0.0209 
     33 CB         23.9542   -3.8593   -2.6171 C.3       2 UNK        -0.1931 
     34 N          25.4313   -2.9802   -0.8782 N.am      2 UNK        -0.4546 
     35 C          25.7864   -2.2571    0.1936 C.2       1 UNK         0.5154 
     36 O          25.1205   -1.3179    0.6323 O.2       1 UNK        -0.5181 
     37 C          27.7808   -1.4979   -7.0143 C.2       5 UNK         0.5014 
     38 O          28.4853   -1.4920   -8.0237 O.2       5 UNK        -0.5248 
     39 N          27.9728   -0.6884   -5.9626 N.am      6 UNK        -0.4434 
     40 CA         29.0478    0.3007   -5.8885 C.3       6 UNK         0.0363 
     41 CB         29.0889    0.9353   -4.4912 C.3       6 UNK        -0.1936 
     42 C          28.9549    1.3717   -6.9876 C.2       6 UNK         0.5081 
     43 O          29.9763    1.7196   -7.5813 O.2       6 UNK        -0.5248 
     44 N          27.7294    1.8349   -7.2717 N.am      7 UNK        -0.4718 
     45 CA         27.4137    2.7484   -8.3700 C.3       7 UNK         0.0273 
     46 CB         25.9587    3.2265   -8.2421 C.3       7 UNK        -0.1935 
     47 C          27.6638    2.1292   -9.7552 C.2       7 UNK         0.5018 
     48 O          28.2463    2.7984  -10.6085 O.2       7 UNK        -0.5186 
     49 N          27.2428    0.8699   -9.9527 N.am      8 UNK        -0.4240 
     50 CA         27.4519    0.1135  -11.1922 C.3       8 UNK         0.0235 
     51 CB         26.6213   -1.1795  -11.1670 C.3       8 UNK        -0.2000 
     52 C          28.9330   -0.1988  -11.4606 C.2       8 UNK         0.4941 
     53 O          29.3831   -0.0555  -12.5981 O.2       8 UNK        -0.5273 
     54 N          29.6654   -0.6004  -10.4125 N.am      9 UNK        -0.4262 
     55 CA         31.1095   -0.8429  -10.4508 C.3       9 UNK         0.0264 
     56 CB         31.5263   -1.6010   -9.1801 C.3       9 UNK        -0.1955 
     57 C          31.9371    0.4466  -10.5914 C.2       9 UNK         0.5031 
     58 O          33.0526    0.3854  -11.1104 O.2       9 UNK        -0.5390 
     59 N          31.3874    1.5714  -10.1081 N.am      10 UNK        -0.4204 
     60 CA         31.9992    2.9009  -10.0043 C.3       10 UNK         0.0237 
     61 CB         32.2857    3.4950  -11.3997 C.3       10 UNK        -0.1985 
     62 C          33.2264    2.9086   -9.0714 C.2       10 UNK         0.4970 
     63 O          34.1910    3.6322   -9.3264 O.2       10 UNK        -0.4914 
     64 N          33.1678    2.0927   -8.0110 N.am      11 UNK        -0.4285 
     65 CA         34.2386    1.9209   -7.0184 C.3       11 UNK         0.1007 
     66 C          34.2752    3.0115   -5.9078 C.2       11 UNK         0.5703 
     67 N          33.2927    3.9006   -5.8147 N.am      11 UNK        -0.7361 
     68 O          35.2244    3.0634   -5.1289 O.2       11 UNK        -0.4986 
     69 C69        34.2540    0.4783   -6.4457 C.3       12 UNK        -0.0947 
     70 S70        32.7063    0.0086   -5.6056 S.3       12 UNK        -0.2240 
     71 C71        32.8437   -1.8072   -5.6069 C.3       12 UNK         0.0194 
     72 H72        25.0129   -4.6745    1.6641 H         1 UNK         0.0906 
     73 H73        25.6736   -6.1203    2.4151 H         1 UNK         0.0906 
     74 H74        26.2125   -4.5411    2.9651 H         1 UNK         0.0906 
     75 H75        28.2987   -4.0680   -0.1055 H         1 UNK         0.3140 
     76 H76        26.9425   -2.5671    1.9545 H         1 UNK         0.1085 
     77 H77        27.9460   -0.6168    0.9109 H         1 UNK         0.0836 
     78 H78        29.1475   -1.8538    1.0894 H         1 UNK         0.0836 
     79 H79        30.9514   -1.9367   -0.9535 H         1 UNK         0.0731 
     80 H80        29.9928   -3.3917   -0.8333 H         1 UNK         0.0731 
     81 H81        31.9998   -1.3986   -3.0516 H         1 UNK         0.1312 
     82 H82        31.1377   -3.7452   -6.5411 H         1 UNK         0.1406 
     83 H83        28.8457   -4.2958   -2.9587 H         1 UNK         0.1631 
     84 H84        28.5137   -5.8018   -4.7431 H         1 UNK         0.0717 
     85 H85        29.8553   -6.0240   -5.8316 H         1 UNK         0.0717 
     86 H86        25.9321   -4.2730   -5.9657 H         1 UNK         0.0934 
     87 H87        27.1706   -3.4183   -5.0883 H         1 UNK         0.0934 
     88 H88        26.3652   -2.7745   -7.9721 H         1 UNK         0.0739 
     89 H89        25.1275   -1.8183   -5.5304 H         1 UNK         0.3093 
     90 H90        23.5168    0.9655   -7.0832 H         1 UNK         0.0818 
     91 H91        21.4197   -0.1766   -6.4104 H         1 UNK         0.0819 
     92 H92        22.0780   -0.9302   -7.8521 H         1 UNK         0.0819 
     93 H93        22.2630   -1.7222   -6.2935 H         1 UNK         0.0819 
     94 H94        23.1683   -0.2169   -4.5171 H         1 UNK         0.3041 
     95 H95        26.0281    1.0478   -2.9079 H         1 UNK         0.0784 
     96 H96        24.6116    3.1163   -2.9662 H         1 UNK         0.0793 
     97 H97        23.1782    2.1511   -2.6379 H         1 UNK         0.0793 
     98 H98        24.4634    2.2730   -1.4343 H         1 UNK         0.0793 
     99 H99        23.8822   -0.1116   -1.6457 H         1 UNK         0.3024 
    100 H100       23.4983   -2.2593   -1.2532 H         1 UNK         0.1171 
    101 H101       23.1712   -3.6138   -3.3357 H         1 UNK         0.0786 
    102 H102       23.5624   -4.6408   -1.9655 H         1 UNK         0.0786 
    103 H103       24.7902   -4.2807   -3.1777 H         1 UNK         0.0786 
    104 H104       26.0639   -3.7069   -1.1801 H         1 UNK         0.2977 
    105 H105       27.3451   -0.7544   -5.1722 H         1 UNK         0.3127 
    106 H106       29.9766   -0.2458   -6.0451 H         1 UNK         0.0770 
    107 H107       28.1692    1.4735   -4.2613 H         1 UNK         0.0814 
    108 H108       29.9135    1.6451   -4.4139 H         1 UNK         0.0814 
    109 H109       29.2420    0.1796   -3.7210 H         1 UNK         0.0814 
    110 H110       26.9537    1.5475   -6.6789 H         1 UNK         0.2983 
    111 H111       28.0680    3.6177   -8.2744 H         1 UNK         0.0947 
    112 H112       25.7072    3.9305   -9.0365 H         1 UNK         0.0806 
    113 H113       25.7910    3.7347   -7.2923 H         1 UNK         0.0806 
    114 H114       25.2543    2.3965   -8.3045 H         1 UNK         0.0806 
    115 H115       26.7281    0.3994   -9.2143 H         1 UNK         0.3000 
    116 H116       27.0916    0.7290  -12.0193 H         1 UNK         0.0850 
    117 H117       26.7635   -1.7544  -12.0830 H         1 UNK         0.0810 
    118 H118       25.5561   -0.9636  -11.0825 H         1 UNK         0.0810 
    119 H119       26.8991   -1.8218  -10.3306 H         1 UNK         0.0810 
    120 H120       29.1977   -0.7710   -9.5214 H         1 UNK         0.3040 
    121 H121       31.3271   -1.4735  -11.3154 H         1 UNK         0.0766 
    122 H122       32.5973   -1.8079   -9.1796 H         1 UNK         0.0812 
    123 H123       31.3016   -1.0267   -8.2801 H         1 UNK         0.0812 
    124 H124       31.0089   -2.5573   -9.1005 H         1 UNK         0.0812 
    125 H125       30.4956    1.4830   -9.6333 H         1 UNK         0.3205 
    126 H126       31.2523    3.5354   -9.5248 H         1 UNK         0.0754 
    127 H127       32.6052    4.5351  -11.3237 H         1 UNK         0.0769 
    128 H128       31.3940    3.4757  -12.0266 H         1 UNK         0.0769 
    129 H129       33.0742    2.9504  -11.9199 H         1 UNK         0.0769 
    130 H130       32.3125    1.5811   -7.8354 H         1 UNK         0.2981 
    131 H131       35.1859    2.0390   -7.5481 H         1 UNK         0.0541 
    132 H132       32.5075    3.8588   -6.4438 H         1 UNK         0.3459 
    133 H133       33.3314    4.6065   -5.0968 H         1 UNK         0.3459 
    134 H134       35.0841    0.3452   -5.7497 H         1 UNK         0.0612 
    135 H135       34.4315   -0.2271   -7.2591 H         1 UNK         0.0612 
    136 H136       32.9115   -2.1583   -6.6370 H         1 UNK         0.0624 
    137 H137       33.7760   -2.0933   -5.1183 H         1 UNK         0.0624 
@<TRIPOS>BOND
     1    1    2 1    
     2    1   72 1    
     3    1   73 1    
     4    1   74 1    
     5    2    3 2    
     6    2    4 am   BACKBONE|DICT|INTERRES
     7    4    5 1    
     8    4   75 1    
     9    5    6 1    
    10    5   35 1    
    11    5   76 1    
    12    6    7 1    
    13    6   77 1    
    14    6   78 1    
    15    7    8 1    
    16    8    9 1    
    17    8   79 1    
    18    8   80 1    
    19    9   10 ar   
    20    9   14 ar   
    21   10   11 ar   
    22   10   81 1    
    23   11   12 ar   
    24   11   71 1    
    25   12   13 ar   
    26   12   82 1    
    27   13   14 ar   
    28   13   15 1    
    29   14   83 1    
    30   15   16 1    
    31   15   84 1    
    32   15   85 1    
    33   16   17 1    
    34   17   18 1    
    35   17   86 1    
    36   17   87 1    
    37   18   19 1    
    38   18   37 1    
    39   18   88 1    
    40   19   20 am   BACKBONE|DICT|INTERRES
    41   19   89 1    
    42   20   21 2    
    43   20   22 1    
    44   22   23 1    
    45   22   24 1    
    46   22   90 1    
    47   23   91 1    
    48   23   92 1    
    49   23   93 1    
    50   24   25 am   BACKBONE|DICT|INTERRES
    51   24   94 1    
    52   25   26 2    
    53   25   27 1    
    54   27   28 1    
    55   27   29 1    
    56   27   95 1    
    57   28   96 1    
    58   28   97 1    
    59   28   98 1    
    60   29   30 am   BACKBONE|DICT|INTERRES
    61   29   99 1    
    62   30   31 2    
    63   30   32 1    
    64   32   33 1    
    65   32   34 1    
    66   32  100 1    
    67   33  101 1    
    68   33  102 1    
    69   33  103 1    
    70   34   35 am   BACKBONE|DICT|INTERRES
    71   34  104 1    
    72   35   36 2    
    73   37   38 2    
    74   37   39 am   BACKBONE|DICT|INTERRES
    75   39   40 1    
    76   39  105 1    
    77   40   41 1    
    78   40   42 1    
    79   40  106 1    
    80   41  107 1    
    81   41  108 1    
    82   41  109 1    
    83   42   43 2    
    84   42   44 am   BACKBONE|DICT|INTERRES
    85   44   45 1    
    86   44  110 1    
    87   45   46 1    
    88   45   47 1    
    89   45  111 1    
    90   46  112 1    
    91   46  113 1    
    92   46  114 1    
    93   47   48 2    
    94   47   49 am   BACKBONE|DICT|INTERRES
    95   49   50 1    
    96   49  115 1    
    97   50   51 1    
    98   50   52 1    
    99   50  116 1    
   100   51  117 1    
   101   51  118 1    
   102   51  119 1    
   103   52   53 2    
   104   52   54 am   BACKBONE|DICT|INTERRES
   105   54   55 1    
   106   54  120 1    
   107   55   56 1    
   108   55   57 1    
   109   55  121 1    
   110   56  122 1    
   111   56  123 1    
   112   56  124 1    
   113   57   58 2    
   114   57   59 am   BACKBONE|DICT|INTERRES
   115   59   60 1    
   116   59  125 1    
   117   60   61 1    
   118   60   62 1    
   119   60  126 1    
   120   61  127 1    
   121   61  128 1    
   122   61  129 1    
   123   62   63 2    
   124   62   64 am   BACKBONE|DICT|INTERRES
   125   64   65 1    
   126   64  130 1    
   127   65   66 1    
   128   65   69 1    
   129   65  131 1    
   130   66   67 am   BACKBONE|DICT|INTERRES
   131   66   68 2    
   132   67  132 1    
   133   67  133 1    
   134   69   70 1    
   135   69  134 1    
   136   69  135 1    
   137   70   71 1    
   138   71  136 1    
   139   71  137 1    
@<TRIPOS>SUBSTRUCTURE
     1 UNK         1 GROUP             0       ****    0 ROOT    
