@<TRIPOS>MOLECULE
3R137
137   139    1
SMALL
USER_CHARGES


@<TRIPOS>ATOM
      1 CA         28.9924   -3.1078    3.4301 C.3       0 UNK        -0.2020 
      2 C          28.7483   -2.0311    2.3830 C.2       0 UNK         0.4855 
      3 O          28.3780   -0.9095    2.7326 O.2       0 UNK        -0.5197 
      4 N          28.9624   -2.3596    1.1035 N.am      1 UNK        -0.4892 
      5 CA         28.7305   -1.4674   -0.0385 C.3       1 UNK         0.0835 
      6 C6         29.4155   -1.9823   -1.3287 C.3       12 UNK        -0.0855 
      7 S7         31.2163   -2.2294   -1.1464 S.3       12 UNK        -0.2931 
      8 C8         31.4020   -3.9853   -1.6019 C.3       12 UNK         0.0378 
      9 C9         31.1963   -4.2012   -3.0951 C.ar      12 UNK        -0.0802 
     10 C10        32.2499   -3.9840   -3.9873 C.ar      12 UNK        -0.0944 
     11 C11        32.0620   -4.1507   -5.3630 C.ar      12 UNK        -0.0787 
     12 C12        30.8105   -4.5457   -5.8456 C.ar      12 UNK        -0.0862 
     13 C13        29.7490   -4.7645   -4.9621 C.ar      12 UNK        -0.0733 
     14 C14        29.9528   -4.6067   -3.5889 C.ar      12 UNK        -0.0832 
     15 C15        28.3737   -5.1573   -5.4782 C.3       12 UNK         0.0240 
     16 S16        27.3082   -3.6962   -5.6901 S.3       12 UNK        -0.2522 
     17 C17        27.7990   -3.1574   -7.3627 C.3       12 UNK        -0.0967 
     18 CA         27.1366   -1.8391   -7.8326 C.3       5 UNK         0.0660 
     19 N          25.6913   -1.7991   -7.5880 N.am      5 UNK        -0.4015 
     20 C          24.8489   -0.8948   -8.1064 C.2       4 UNK         0.4946 
     21 O          25.2091    0.0306   -8.8340 O.2       4 UNK        -0.5353 
     22 CA         23.3630   -1.0254   -7.7372 C.3       4 UNK         0.0277 
     23 CB         22.6437   -1.9501   -8.7318 C.3       4 UNK        -0.1981 
     24 N          23.1466   -1.5057   -6.3687 N.am      4 UNK        -0.4209 
     25 C          23.4595   -0.8076   -5.2681 C.2       3 UNK         0.4942 
     26 O          23.9376    0.3289   -5.3056 O.2       3 UNK        -0.5208 
     27 CA         23.1533   -1.4780   -3.9112 C.3       3 UNK         0.0250 
     28 CB         23.4886   -2.9877   -3.8934 C.3       3 UNK        -0.1990 
     29 N          23.7940   -0.7884   -2.7819 N.am      3 UNK        -0.4232 
     30 C          25.1098   -0.6482   -2.5597 C.2       2 UNK         0.4993 
     31 O          25.9838   -1.1437   -3.2757 O.2       2 UNK        -0.5286 
     32 CA         25.5239    0.2357   -1.3616 C.3       2 UNK         0.0209 
     33 CB         24.4820    0.2768   -0.2186 C.3       2 UNK        -0.1931 
     34 N          26.8562   -0.1167   -0.8504 N.am      2 UNK        -0.4546 
     35 C          27.2202   -1.2834   -0.2974 C.2       1 UNK         0.5154 
     36 O          26.4388   -2.2047   -0.0401 O.2       1 UNK        -0.5181 
     37 C          27.8856   -0.5859   -7.3364 C.2       5 UNK         0.5014 
     38 O          28.8590   -0.1906   -7.9797 O.2       5 UNK        -0.5248 
     39 N          27.3917    0.0762   -6.2797 N.am      6 UNK        -0.4434 
     40 CA         27.9078    1.3687   -5.8132 C.3       6 UNK         0.0363 
     41 CB         27.2666    1.7277   -4.4650 C.3       6 UNK        -0.1936 
     42 C          27.7325    2.5225   -6.8220 C.2       6 UNK         0.5081 
     43 O          28.4422    3.5211   -6.7029 O.2       6 UNK        -0.5248 
     44 N          26.8221    2.3715   -7.7937 N.am      7 UNK        -0.4718 
     45 CA         26.6443    3.2951   -8.9132 C.3       7 UNK         0.0273 
     46 CB         25.1467    3.5954   -9.0946 C.3       7 UNK        -0.1935 
     47 C          27.2423    2.7173  -10.2051 C.2       7 UNK         0.5018 
     48 O          27.9557    3.4327  -10.9083 O.2       7 UNK        -0.5186 
     49 N          26.9245    1.4497  -10.5082 N.am      8 UNK        -0.4240 
     50 CA         27.2720    0.7825  -11.7650 C.3       8 UNK         0.0235 
     51 CB         26.4058   -0.4764  -11.9372 C.3       8 UNK        -0.2000 
     52 C          28.7638    0.4396  -11.8968 C.2       8 UNK         0.4941 
     53 O          29.3421    0.6884  -12.9557 O.2       8 UNK        -0.5273 
     54 N          29.3544   -0.1314  -10.8387 N.am      9 UNK        -0.4262 
     55 CA         30.7772   -0.4798  -10.7802 C.3       9 UNK         0.0264 
     56 CB         30.9551   -1.8223  -10.0505 C.3       9 UNK        -0.1955 
     57 C          31.5924    0.6296  -10.0986 C.2       9 UNK         0.5031 
     58 O          32.7369    0.8573  -10.4925 O.2       9 UNK        -0.5390 
     59 N          30.9796    1.3049   -9.1131 N.am      10 UNK        -0.4204 
     60 CA         31.5131    2.4237   -8.3283 C.3       10 UNK         0.0237 
     61 CB         31.7467    3.6640   -9.2170 C.3       10 UNK        -0.1985 
     62 C          32.7429    2.0209   -7.4953 C.2       10 UNK         0.4970 
     63 O          33.7584    2.7193   -7.5030 O.2       10 UNK        -0.4914 
     64 N          32.6184    0.8880   -6.7931 N.am      11 UNK        -0.4285 
     65 CA         33.6631    0.2984   -5.9404 C.3       11 UNK         0.1007 
     66 C          33.9983    1.1054   -4.6511 C.2       11 UNK         0.5703 
     67 N          33.1835    2.0673   -4.2330 N.am      11 UNK        -0.7361 
     68 O          35.0242    0.8562   -4.0225 O.2       11 UNK        -0.4986 
     69 C69        33.3368   -1.1751   -5.5880 C.3       12 UNK        -0.0947 
     70 S70        33.1025   -2.2254   -7.0608 S.3       12 UNK        -0.2240 
     71 C71        33.2074   -3.8883   -6.3294 C.3       12 UNK         0.0194 
     72 H72        29.3324   -4.0421    2.9836 H         1 UNK         0.0906 
     73 H73        29.7500   -2.7763    4.1398 H         1 UNK         0.0906 
     74 H74        28.0742   -3.3098    3.9809 H         1 UNK         0.0906 
     75 H75        29.2520   -3.2979    0.8705 H         1 UNK         0.3140 
     76 H76        29.1555   -0.4921    0.2105 H         1 UNK         0.1085 
     77 H77        28.9439   -2.9124   -1.6442 H         1 UNK         0.0836 
     78 H78        29.2630   -1.2804   -2.1513 H         1 UNK         0.0836 
     79 H79        32.4022   -4.3177   -1.3198 H         1 UNK         0.0731 
     80 H80        30.7061   -4.5937   -1.0222 H         1 UNK         0.0731 
     81 H81        33.2124   -3.6660   -3.6102 H         1 UNK         0.1312 
     82 H82        30.6618   -4.6667   -6.9098 H         1 UNK         0.1406 
     83 H83        29.1311   -4.7831   -2.9087 H         1 UNK         0.1631 
     84 H84        27.8970   -5.8383   -4.7715 H         1 UNK         0.0717 
     85 H85        28.4536   -5.7046   -6.4187 H         1 UNK         0.0717 
     86 H86        27.5266   -3.9564   -8.0543 H         1 UNK         0.0934 
     87 H87        28.8866   -3.0834   -7.4178 H         1 UNK         0.0934 
     88 H88        27.2503   -1.8188   -8.9181 H         1 UNK         0.0739 
     89 H89        25.3286   -2.5122   -6.9720 H         1 UNK         0.3093 
     90 H90        22.9204   -0.0300   -7.8180 H         1 UNK         0.0818 
     91 H91        21.5708   -1.9805   -8.5413 H         1 UNK         0.0819 
     92 H92        22.7782   -1.5991   -9.7563 H         1 UNK         0.0819 
     93 H93        23.0231   -2.9717   -8.6856 H         1 UNK         0.0819 
     94 H94        22.7323   -2.4208   -6.2642 H         1 UNK         0.3041 
     95 H95        22.0787   -1.3728   -3.7553 H         1 UNK         0.0784 
     96 H96        22.8457   -3.5515   -4.5696 H         1 UNK         0.0793 
     97 H97        24.5218   -3.1791   -4.1864 H         1 UNK         0.0793 
     98 H98        23.3455   -3.4104   -2.8989 H         1 UNK         0.0793 
     99 H99        23.1618   -0.3115   -2.1550 H         1 UNK         0.3024 
    100 H100       25.6130    1.2478   -1.7599 H         1 UNK         0.1171 
    101 H101       24.8588    0.8383    0.6365 H         1 UNK         0.0786 
    102 H102       24.2201   -0.7222    0.1322 H         1 UNK         0.0786 
    103 H103       23.5612    0.7680   -0.5344 H         1 UNK         0.0786 
    104 H104       27.5808    0.5595   -1.0464 H         1 UNK         0.2977 
    105 H105       26.5922   -0.3026   -5.7880 H         1 UNK         0.3127 
    106 H106       28.9818    1.2538   -5.6520 H         1 UNK         0.0770 
    107 H107       26.1788    1.7650   -4.5329 H         1 UNK         0.0814 
    108 H108       27.6069    2.7028   -4.1133 H         1 UNK         0.0814 
    109 H109       27.5368    1.0005   -3.7004 H         1 UNK         0.0814 
    110 H110       26.2818    1.5145   -7.8279 H         1 UNK         0.2983 
    111 H111       27.1510    4.2417   -8.7117 H         1 UNK         0.0947 
    112 H112       24.9841    4.2779   -9.9299 H         1 UNK         0.0806 
    113 H113       24.7298    4.0677   -8.2049 H         1 UNK         0.0806 
    114 H114       24.5689    2.6920   -9.2934 H         1 UNK         0.0806 
    115 H115       26.3003    0.9405   -9.8828 H         1 UNK         0.3000 
    116 H116       27.0240    1.4675  -12.5791 H         1 UNK         0.0850 
    117 H117       26.6188   -0.9701  -12.8864 H         1 UNK         0.0810 
    118 H118       25.3439   -0.2295  -11.9321 H         1 UNK         0.0810 
    119 H119       26.5811   -1.2038  -11.1449 H         1 UNK         0.0810 
    120 H120       28.8272   -0.2514   -9.9817 H         1 UNK         0.3040 
    121 H121       31.1694   -0.6033  -11.7921 H         1 UNK         0.0766 
    122 H122       30.3848   -2.6154  -10.5338 H         1 UNK         0.0812 
    123 H123       30.6416   -1.7713   -9.0082 H         1 UNK         0.0812 
    124 H124       32.0023   -2.1274  -10.0560 H         1 UNK         0.0812 
    125 H125       30.0772    0.9475   -8.8069 H         1 UNK         0.3205 
    126 H126       30.7402    2.6849   -7.6069 H         1 UNK         0.0754 
    127 H127       32.0286    4.5279   -8.6140 H         1 UNK         0.0769 
    128 H128       30.8422    3.9321   -9.7638 H         1 UNK         0.0769 
    129 H129       32.5430    3.5009   -9.9438 H         1 UNK         0.0769 
    130 H130       31.7603    0.3617   -6.8625 H         1 UNK         0.2981 
    131 H131       34.5819    0.2946   -6.5301 H         1 UNK         0.0541 
    132 H132       32.3427    2.2842   -4.7419 H         1 UNK         0.3459 
    133 H133       33.4178    2.5830   -3.3996 H         1 UNK         0.3459 
    134 H134       32.4324   -1.2276   -4.9787 H         1 UNK         0.0612 
    135 H135       34.1402   -1.6091   -4.9897 H         1 UNK         0.0612 
    136 H136       33.1878   -4.6275   -7.1315 H         1 UNK         0.0624 
    137 H137       34.1699   -4.0053   -5.8290 H         1 UNK         0.0624 
@<TRIPOS>BOND
     1    1    2 1    
     2    1   72 1    
     3    1   73 1    
     4    1   74 1    
     5    2    3 2    
     6    2    4 am   BACKBONE|DICT|INTERRES
     7    4    5 1    
     8    4   75 1    
     9    5    6 1    
    10    5   35 1    
    11    5   76 1    
    12    6    7 1    
    13    6   77 1    
    14    6   78 1    
    15    7    8 1    
    16    8    9 1    
    17    8   79 1    
    18    8   80 1    
    19    9   10 ar   
    20    9   14 ar   
    21   10   11 ar   
    22   10   81 1    
    23   11   12 ar   
    24   11   71 1    
    25   12   13 ar   
    26   12   82 1    
    27   13   14 ar   
    28   13   15 1    
    29   14   83 1    
    30   15   16 1    
    31   15   84 1    
    32   15   85 1    
    33   16   17 1    
    34   17   18 1    
    35   17   86 1    
    36   17   87 1    
    37   18   19 1    
    38   18   37 1    
    39   18   88 1    
    40   19   20 am   BACKBONE|DICT|INTERRES
    41   19   89 1    
    42   20   21 2    
    43   20   22 1    
    44   22   23 1    
    45   22   24 1    
    46   22   90 1    
    47   23   91 1    
    48   23   92 1    
    49   23   93 1    
    50   24   25 am   BACKBONE|DICT|INTERRES
    51   24   94 1    
    52   25   26 2    
    53   25   27 1    
    54   27   28 1    
    55   27   29 1    
    56   27   95 1    
    57   28   96 1    
    58   28   97 1    
    59   28   98 1    
    60   29   30 am   BACKBONE|DICT|INTERRES
    61   29   99 1    
    62   30   31 2    
    63   30   32 1    
    64   32   33 1    
    65   32   34 1    
    66   32  100 1    
    67   33  101 1    
    68   33  102 1    
    69   33  103 1    
    70   34   35 am   BACKBONE|DICT|INTERRES
    71   34  104 1    
    72   35   36 2    
    73   37   38 2    
    74   37   39 am   BACKBONE|DICT|INTERRES
    75   39   40 1    
    76   39  105 1    
    77   40   41 1    
    78   40   42 1    
    79   40  106 1    
    80   41  107 1    
    81   41  108 1    
    82   41  109 1    
    83   42   43 2    
    84   42   44 am   BACKBONE|DICT|INTERRES
    85   44   45 1    
    86   44  110 1    
    87   45   46 1    
    88   45   47 1    
    89   45  111 1    
    90   46  112 1    
    91   46  113 1    
    92   46  114 1    
    93   47   48 2    
    94   47   49 am   BACKBONE|DICT|INTERRES
    95   49   50 1    
    96   49  115 1    
    97   50   51 1    
    98   50   52 1    
    99   50  116 1    
   100   51  117 1    
   101   51  118 1    
   102   51  119 1    
   103   52   53 2    
   104   52   54 am   BACKBONE|DICT|INTERRES
   105   54   55 1    
   106   54  120 1    
   107   55   56 1    
   108   55   57 1    
   109   55  121 1    
   110   56  122 1    
   111   56  123 1    
   112   56  124 1    
   113   57   58 2    
   114   57   59 am   BACKBONE|DICT|INTERRES
   115   59   60 1    
   116   59  125 1    
   117   60   61 1    
   118   60   62 1    
   119   60  126 1    
   120   61  127 1    
   121   61  128 1    
   122   61  129 1    
   123   62   63 2    
   124   62   64 am   BACKBONE|DICT|INTERRES
   125   64   65 1    
   126   64  130 1    
   127   65   66 1    
   128   65   69 1    
   129   65  131 1    
   130   66   67 am   BACKBONE|DICT|INTERRES
   131   66   68 2    
   132   67  132 1    
   133   67  133 1    
   134   69   70 1    
   135   69  134 1    
   136   69  135 1    
   137   70   71 1    
   138   71  136 1    
   139   71  137 1    
@<TRIPOS>SUBSTRUCTURE
     1 UNK         1 GROUP             0       ****    0 ROOT    
