@<TRIPOS>MOLECULE
3R137
137   139    1
SMALL
USER_CHARGES


@<TRIPOS>ATOM
      1 CA         27.6577   -3.2119   -3.8094 C.3       0 UNK        -0.2020 
      2 C          27.4394   -3.9548   -2.5014 C.2       0 UNK         0.4855 
      3 O          26.8704   -5.0476   -2.5002 O.2       0 UNK        -0.5197 
      4 N          27.8845   -3.3732   -1.3812 N.am      1 UNK        -0.4892 
      5 CA         27.6807   -3.9040   -0.0305 C.3       1 UNK         0.0835 
      6 C6         28.5452   -3.1704    1.0225 C.3       12 UNK        -0.0855 
      7 S7         30.3211   -3.5231    0.8005 S.3       12 UNK        -0.2931 
      8 C8         31.0028   -1.8756    0.4323 C.3       12 UNK         0.0378 
      9 C9         30.6411   -1.3914   -0.9654 C.ar      12 UNK        -0.0802 
     10 C10        31.1905   -2.0186   -2.0879 C.ar      12 UNK        -0.0944 
     11 C11        30.9079   -1.5466   -3.3723 C.ar      12 UNK        -0.0787 
     12 C12        30.0818   -0.4310   -3.5324 C.ar      12 UNK        -0.0862 
     13 C13        29.5181    0.1983   -2.4193 C.ar      12 UNK        -0.0733 
     14 C14        29.7952   -0.2909   -1.1380 C.ar      12 UNK        -0.0832 
     15 C15        28.6358    1.4246   -2.5956 C.3       12 UNK         0.0240 
     16 S16        26.9739    0.9815   -3.1904 S.3       12 UNK        -0.2522 
     17 C17        27.1116    1.2526   -4.9937 C.3       12 UNK        -0.0967 
     18 CA         26.5654    0.0687   -5.8325 C.3       5 UNK         0.0660 
     19 N          25.1937   -0.2772   -5.4571 N.am      5 UNK        -0.4015 
     20 C          24.5597   -1.3978   -5.8163 C.2       4 UNK         0.4946 
     21 O          25.0587   -2.2821   -6.5174 O.2       4 UNK        -0.5353 
     22 CA         23.1201   -1.5633   -5.2995 C.3       4 UNK         0.0277 
     23 CB         22.1070   -1.3651   -6.4389 C.3       4 UNK        -0.1981 
     24 N          22.9272   -2.8844   -4.6978 N.am      4 UNK        -0.4209 
     25 C          23.5397   -3.2964   -3.5800 C.2       3 UNK         0.4942 
     26 O          24.2531   -2.5663   -2.8874 O.2       3 UNK        -0.5208 
     27 CA         23.3275   -4.7701   -3.1944 C.3       3 UNK         0.0250 
     28 CB         23.9628   -5.7095   -4.2360 C.3       3 UNK        -0.1990 
     29 N          23.9212   -5.0504   -1.8864 N.am      3 UNK        -0.4232 
     30 C          23.2816   -4.9253   -0.7149 C.2       2 UNK         0.4993 
     31 O          22.0857   -4.6448   -0.6174 O.2       2 UNK        -0.5286 
     32 CA         24.0940   -5.1663    0.5718 C.3       2 UNK         0.0209 
     33 CB         23.8024   -6.5670    1.1363 C.3       2 UNK        -0.1931 
     34 N          25.5384   -5.0237    0.3722 N.am      2 UNK        -0.4546 
     35 C          26.1834   -3.8502    0.3332 C.2       1 UNK         0.5154 
     36 O          25.6463   -2.7622    0.5522 O.2       1 UNK        -0.5181 
     37 C          26.6308    0.4126   -7.3322 C.2       5 UNK         0.5014 
     38 O          25.8079    1.1998   -7.8079 O.2       5 UNK        -0.5248 
     39 N          27.6384   -0.1128   -8.0405 N.am      6 UNK        -0.4434 
     40 CA         27.9327    0.2110   -9.4415 C.3       6 UNK         0.0363 
     41 CB         28.6630   -0.9792  -10.0896 C.3       6 UNK        -0.1936 
     42 C          28.7384    1.5209   -9.5377 C.2       6 UNK         0.5081 
     43 O          29.8294    1.5346  -10.1091 O.2       6 UNK        -0.5248 
     44 N          28.1914    2.5903   -8.9407 N.am      7 UNK        -0.4718 
     45 CA         28.8497    3.8616   -8.6148 C.3       7 UNK         0.0273 
     46 CB         27.8203    4.8161   -7.9899 C.3       7 UNK        -0.1935 
     47 C          29.5898    4.5504   -9.7721 C.2       7 UNK         0.5018 
     48 O          30.6244    5.1729   -9.5300 O.2       7 UNK        -0.5186 
     49 N          29.0943    4.3743  -11.0053 N.am      8 UNK        -0.4240 
     50 CA         29.7198    4.8405  -12.2484 C.3       8 UNK         0.0235 
     51 CB         28.7967    4.5065  -13.4315 C.3       8 UNK        -0.2000 
     52 C          31.1357    4.2806  -12.4976 C.2       8 UNK         0.4941 
     53 O          31.9158    4.9266  -13.1985 O.2       8 UNK        -0.5273 
     54 N          31.4492    3.1171  -11.9124 N.am      9 UNK        -0.4262 
     55 CA         32.7728    2.4952  -11.9157 C.3       9 UNK         0.0264 
     56 CB         32.7658    1.3077  -12.8970 C.3       9 UNK        -0.1955 
     57 C          33.1766    2.0728  -10.4910 C.2       9 UNK         0.5031 
     58 O          33.9431    1.1176  -10.3437 O.2       9 UNK        -0.5390 
     59 N          32.6367    2.7592   -9.4691 N.am      10 UNK        -0.4204 
     60 CA         32.7168    2.4750   -8.0283 C.3       10 UNK         0.0237 
     61 CB         34.1549    2.6394   -7.4945 C.3       10 UNK        -0.1985 
     62 C          32.1053    1.1141   -7.6415 C.2       10 UNK         0.4970 
     63 O          31.0529    1.0815   -7.0013 O.2       10 UNK        -0.4914 
     64 N          32.7763    0.0332   -8.0495 N.am      11 UNK        -0.4285 
     65 CA         32.3549   -1.3663   -7.9083 C.3       11 UNK         0.1007 
     66 C          32.3797   -2.1404   -9.2578 C.2       11 UNK         0.5703 
     67 N          32.8200   -1.5578  -10.3681 N.am      11 UNK        -0.7361 
     68 O          31.9660   -3.2961   -9.3048 O.2       11 UNK        -0.4986 
     69 C69        33.1683   -2.1175   -6.8175 C.3       12 UNK        -0.0947 
     70 S70        32.9922   -1.3801   -5.1613 S.3       12 UNK        -0.2240 
     71 C71        31.4937   -2.2339   -4.5923 C.3       12 UNK         0.0194 
     72 H72        27.7926   -2.1446   -3.6386 H         1 UNK         0.0906 
     73 H73        28.5372   -3.5981   -4.3231 H         1 UNK         0.0906 
     74 H74        26.7940   -3.3371   -4.4620 H         1 UNK         0.0906 
     75 H75        28.3634   -2.4845   -1.4345 H         1 UNK         0.3140 
     76 H76        27.9893   -4.9521   -0.0377 H         1 UNK         0.1085 
     77 H77        28.2773   -3.4951    2.0301 H         1 UNK         0.0836 
     78 H78        28.3626   -2.0945    0.9946 H         1 UNK         0.0836 
     79 H79        32.0895   -1.9228    0.5161 H         1 UNK         0.0731 
     80 H80        30.6728   -1.1672    1.1939 H         1 UNK         0.0731 
     81 H81        31.8440   -2.8708   -1.9585 H         1 UNK         0.1312 
     82 H82        29.8832   -0.0525   -4.5258 H         1 UNK         0.1406 
     83 H83        29.3715    0.2019   -0.2729 H         1 UNK         0.1631 
     84 H84        29.1115    2.1363   -3.2716 H         1 UNK         0.0717 
     85 H85        28.5272    1.9482   -1.6446 H         1 UNK         0.0717 
     86 H86        26.5699    2.1720   -5.2267 H         1 UNK         0.0934 
     87 H87        28.1522    1.4469   -5.2603 H         1 UNK         0.0934 
     88 H88        27.1932   -0.8048   -5.6455 H         1 UNK         0.0739 
     89 H89        24.7129    0.3994   -4.8831 H         1 UNK         0.3093 
     90 H90        22.9257   -0.8119   -4.5308 H         1 UNK         0.0818 
     91 H91        22.2183   -0.3787   -6.8913 H         1 UNK         0.0819 
     92 H92        22.2408   -2.1027   -7.2315 H         1 UNK         0.0819 
     93 H93        21.0812   -1.4411   -6.0777 H         1 UNK         0.0819 
     94 H94        22.3830   -3.5478   -5.2297 H         1 UNK         0.3041 
     95 H95        22.2533   -4.9647   -3.1601 H         1 UNK         0.0784 
     96 H96        23.4775   -5.6120   -5.2076 H         1 UNK         0.0793 
     97 H97        25.0222   -5.4958   -4.3815 H         1 UNK         0.0793 
     98 H98        23.8711   -6.7536   -3.9362 H         1 UNK         0.0793 
     99 H99        24.9263   -5.1930   -1.8836 H         1 UNK         0.3024 
    100 H100       23.7637   -4.4268    1.3054 H         1 UNK         0.1171 
    101 H101       24.1089   -7.3537    0.4457 H         1 UNK         0.0786 
    102 H102       24.3189   -6.7292    2.0826 H         1 UNK         0.0786 
    103 H103       22.7358   -6.6971    1.3252 H         1 UNK         0.0786 
    104 H104       26.0505   -5.8682    0.1577 H         1 UNK         0.2977 
    105 H105       28.3055   -0.7093   -7.5727 H         1 UNK         0.3127 
    106 H106       26.9970    0.3624   -9.9843 H         1 UNK         0.0770 
    107 H107       28.8693   -0.7852  -11.1430 H         1 UNK         0.0814 
    108 H108       28.0647   -1.8890  -10.0395 H         1 UNK         0.0814 
    109 H109       29.6177   -1.1767   -9.6034 H         1 UNK         0.0814 
    110 H110       27.2725    2.4488   -8.5337 H         1 UNK         0.2983 
    111 H111       29.6002    3.6327   -7.8554 H         1 UNK         0.0947 
    112 H112       28.2835    5.7633   -7.7092 H         1 UNK         0.0806 
    113 H113       27.3827    4.3922   -7.0857 H         1 UNK         0.0806 
    114 H114       27.0082    5.0421   -8.6821 H         1 UNK         0.0806 
    115 H115       28.2520    3.8250  -11.0970 H         1 UNK         0.3000 
    116 H116       29.8116    5.9265  -12.1793 H         1 UNK         0.0850 
    117 H117       28.6451    3.4311  -13.5334 H         1 UNK         0.0810 
    118 H118       29.2199    4.8661  -14.3706 H         1 UNK         0.0810 
    119 H119       27.8192    4.9761  -13.3190 H         1 UNK         0.0810 
    120 H120       30.7468    2.6381  -11.3493 H         1 UNK         0.3040 
    121 H121       33.5276    3.2119  -12.2451 H         1 UNK         0.0766 
    122 H122       32.4912    1.6275  -13.9022 H         1 UNK         0.0812 
    123 H123       32.0594    0.5368  -12.5857 H         1 UNK         0.0812 
    124 H124       33.7508    0.8442  -12.9649 H         1 UNK         0.0812 
    125 H125       32.0236    3.5301   -9.7091 H         1 UNK         0.3205 
    126 H126       32.1055    3.2371   -7.5426 H         1 UNK         0.0754 
    127 H127       34.1935    2.4535   -6.4203 H         1 UNK         0.0769 
    128 H128       34.5209    3.6526   -7.6605 H         1 UNK         0.0769 
    129 H129       34.8573    1.9527   -7.9671 H         1 UNK         0.0769 
    130 H130       33.5823    0.1939   -8.6436 H         1 UNK         0.2981 
    131 H131       31.3055   -1.3804   -7.6102 H         1 UNK         0.0541 
    132 H132       33.1747   -0.6070  -10.3680 H         1 UNK         0.3459 
    133 H133       32.8155   -2.0866  -11.2252 H         1 UNK         0.3459 
    134 H134       34.2289   -2.1191   -7.0745 H         1 UNK         0.0612 
    135 H135       32.8702   -3.1660   -6.7575 H         1 UNK         0.0612 
    136 H136       31.7313   -3.2758   -4.3721 H         1 UNK         0.0624 
    137 H137       30.7509   -2.2468   -5.3911 H         1 UNK         0.0624 
@<TRIPOS>BOND
     1    1    2 1    
     2    1   72 1    
     3    1   73 1    
     4    1   74 1    
     5    2    3 2    
     6    2    4 am   BACKBONE|DICT|INTERRES
     7    4    5 1    
     8    4   75 1    
     9    5    6 1    
    10    5   35 1    
    11    5   76 1    
    12    6    7 1    
    13    6   77 1    
    14    6   78 1    
    15    7    8 1    
    16    8    9 1    
    17    8   79 1    
    18    8   80 1    
    19    9   10 ar   
    20    9   14 ar   
    21   10   11 ar   
    22   10   81 1    
    23   11   12 ar   
    24   11   71 1    
    25   12   13 ar   
    26   12   82 1    
    27   13   14 ar   
    28   13   15 1    
    29   14   83 1    
    30   15   16 1    
    31   15   84 1    
    32   15   85 1    
    33   16   17 1    
    34   17   18 1    
    35   17   86 1    
    36   17   87 1    
    37   18   19 1    
    38   18   37 1    
    39   18   88 1    
    40   19   20 am   BACKBONE|DICT|INTERRES
    41   19   89 1    
    42   20   21 2    
    43   20   22 1    
    44   22   23 1    
    45   22   24 1    
    46   22   90 1    
    47   23   91 1    
    48   23   92 1    
    49   23   93 1    
    50   24   25 am   BACKBONE|DICT|INTERRES
    51   24   94 1    
    52   25   26 2    
    53   25   27 1    
    54   27   28 1    
    55   27   29 1    
    56   27   95 1    
    57   28   96 1    
    58   28   97 1    
    59   28   98 1    
    60   29   30 am   BACKBONE|DICT|INTERRES
    61   29   99 1    
    62   30   31 2    
    63   30   32 1    
    64   32   33 1    
    65   32   34 1    
    66   32  100 1    
    67   33  101 1    
    68   33  102 1    
    69   33  103 1    
    70   34   35 am   BACKBONE|DICT|INTERRES
    71   34  104 1    
    72   35   36 2    
    73   37   38 2    
    74   37   39 am   BACKBONE|DICT|INTERRES
    75   39   40 1    
    76   39  105 1    
    77   40   41 1    
    78   40   42 1    
    79   40  106 1    
    80   41  107 1    
    81   41  108 1    
    82   41  109 1    
    83   42   43 2    
    84   42   44 am   BACKBONE|DICT|INTERRES
    85   44   45 1    
    86   44  110 1    
    87   45   46 1    
    88   45   47 1    
    89   45  111 1    
    90   46  112 1    
    91   46  113 1    
    92   46  114 1    
    93   47   48 2    
    94   47   49 am   BACKBONE|DICT|INTERRES
    95   49   50 1    
    96   49  115 1    
    97   50   51 1    
    98   50   52 1    
    99   50  116 1    
   100   51  117 1    
   101   51  118 1    
   102   51  119 1    
   103   52   53 2    
   104   52   54 am   BACKBONE|DICT|INTERRES
   105   54   55 1    
   106   54  120 1    
   107   55   56 1    
   108   55   57 1    
   109   55  121 1    
   110   56  122 1    
   111   56  123 1    
   112   56  124 1    
   113   57   58 2    
   114   57   59 am   BACKBONE|DICT|INTERRES
   115   59   60 1    
   116   59  125 1    
   117   60   61 1    
   118   60   62 1    
   119   60  126 1    
   120   61  127 1    
   121   61  128 1    
   122   61  129 1    
   123   62   63 2    
   124   62   64 am   BACKBONE|DICT|INTERRES
   125   64   65 1    
   126   64  130 1    
   127   65   66 1    
   128   65   69 1    
   129   65  131 1    
   130   66   67 am   BACKBONE|DICT|INTERRES
   131   66   68 2    
   132   67  132 1    
   133   67  133 1    
   134   69   70 1    
   135   69  134 1    
   136   69  135 1    
   137   70   71 1    
   138   71  136 1    
   139   71  137 1    
@<TRIPOS>SUBSTRUCTURE
     1 UNK         1 GROUP             0       ****    0 ROOT    
