@<TRIPOS>MOLECULE
3R137
137   139    1
SMALL
USER_CHARGES


@<TRIPOS>ATOM
      1 CA         24.8180   -0.8732    0.9644 C.3       0 UNK        -0.2020 
      2 C          26.1110   -1.0308    0.1800 C.2       0 UNK         0.4855 
      3 O          26.8544   -0.0606    0.0280 O.2       0 UNK        -0.5197 
      4 N          26.3900   -2.2413   -0.3251 N.am      1 UNK        -0.4892 
      5 CA         27.5939   -2.5618   -1.1005 C.3       1 UNK         0.0835 
      6 C6         27.7447   -4.0851   -1.3430 C.3       12 UNK        -0.0855 
      7 S7         29.4956   -4.6056   -1.3380 S.3       12 UNK        -0.2931 
      8 C8         29.6805   -5.4222   -2.9544 C.3       12 UNK         0.0378 
      9 C9         29.9639   -4.4256   -4.0683 C.ar      12 UNK        -0.0802 
     10 C10        31.2810   -4.0981   -4.4041 C.ar      12 UNK        -0.0944 
     11 C11        31.5460   -3.2058   -5.4475 C.ar      12 UNK        -0.0787 
     12 C12        30.4830   -2.6311   -6.1503 C.ar      12 UNK        -0.0862 
     13 C13        29.1616   -2.9510   -5.8237 C.ar      12 UNK        -0.0733 
     14 C14        28.9115   -3.8507   -4.7837 C.ar      12 UNK        -0.0832 
     15 C15        28.0108   -2.3049   -6.5809 C.3       12 UNK         0.0240 
     16 S16        27.0473   -3.5149   -7.5334 S.3       12 UNK        -0.2522 
     17 C17        25.5819   -3.7152   -6.4579 C.3       12 UNK        -0.0967 
     18 CA         24.4869   -2.6009   -6.4761 C.3       5 UNK         0.0660 
     19 N          24.4119   -1.8877   -5.1938 N.am      5 UNK        -0.4015 
     20 C          23.2989   -1.2867   -4.7471 C.2       4 UNK         0.4946 
     21 O          22.2560   -1.2030   -5.3984 O.2       4 UNK        -0.5353 
     22 CA         23.3197   -0.7368   -3.3161 C.3       4 UNK         0.0277 
     23 CB         23.2762   -1.8916   -2.3007 C.3       4 UNK        -0.1981 
     24 N          24.4860    0.1088   -3.0573 N.am      4 UNK        -0.4209 
     25 C          24.4568    1.4506   -3.0490 C.2       3 UNK         0.4942 
     26 O          23.4514    2.1103   -3.3167 O.2       3 UNK        -0.5208 
     27 CA         25.7380    2.2046   -2.6438 C.3       3 UNK         0.0250 
     28 CB         25.5722    2.8395   -1.2525 C.3       3 UNK        -0.1990 
     29 N          26.9294    1.3530   -2.6455 N.am      3 UNK        -0.4232 
     30 C          27.6571    1.1005   -3.7431 C.2       2 UNK         0.4993 
     31 O          27.4405    1.6305   -4.8303 O.2       2 UNK        -0.5286 
     32 CA         28.8069    0.0817   -3.6288 C.3       2 UNK         0.0209 
     33 CB         30.1518    0.8039   -3.4567 C.3       2 UNK        -0.1931 
     34 N          28.6473   -0.8924   -2.5457 N.am      2 UNK        -0.4546 
     35 C          27.6256   -1.7478   -2.4093 C.2       1 UNK         0.5154 
     36 O          26.6985   -1.8551   -3.2205 O.2       1 UNK        -0.5181 
     37 C          24.5332   -1.6228   -7.6733 C.2       5 UNK         0.5014 
     38 O          25.0502   -0.5086   -7.5528 O.2       5 UNK        -0.5248 
     39 N          24.0183   -2.0871   -8.8210 N.am      6 UNK        -0.4434 
     40 CA         23.8666   -1.3246  -10.0653 C.3       6 UNK         0.0363 
     41 CB         23.0488   -2.1587  -11.0653 C.3       6 UNK        -0.1936 
     42 C          25.1804   -0.8511  -10.7150 C.2       6 UNK         0.5081 
     43 O          25.1418    0.0890  -11.5093 O.2       6 UNK        -0.5248 
     44 N          26.3140   -1.4841  -10.3777 N.am      7 UNK        -0.4718 
     45 CA         27.6471   -1.0743  -10.8364 C.3       7 UNK         0.0273 
     46 CB         28.6449   -2.2267  -10.6320 C.3       7 UNK        -0.1935 
     47 C          28.1591    0.2106  -10.1568 C.2       7 UNK         0.5018 
     48 O          29.1052    0.8112  -10.6681 O.2       7 UNK        -0.5186 
     49 N          27.5332    0.6072   -9.0364 N.am      8 UNK        -0.4240 
     50 CA         27.8568    1.7708   -8.2068 C.3       8 UNK         0.0235 
     51 CB         27.5548    3.0827   -8.9676 C.3       8 UNK        -0.2000 
     52 C          29.2844    1.6935   -7.6252 C.2       8 UNK         0.4941 
     53 O          29.7703    0.5980   -7.3335 O.2       8 UNK        -0.5273 
     54 N          29.9518    2.8444   -7.4706 N.am      9 UNK        -0.4262 
     55 CA         31.3045    2.9854   -6.9208 C.3       9 UNK         0.0264 
     56 CB         31.4996    4.4379   -6.4467 C.3       9 UNK        -0.1955 
     57 C          32.4216    2.5165   -7.8777 C.2       9 UNK         0.5031 
     58 O          33.4349    3.2032   -8.0191 O.2       9 UNK        -0.5390 
     59 N          32.2459    1.3388   -8.4914 N.am      10 UNK        -0.4204 
     60 CA         33.2096    0.6837   -9.3841 C.3       10 UNK         0.0237 
     61 CB         32.5664   -0.5792   -9.9803 C.3       10 UNK        -0.1985 
     62 C          34.5409    0.3379   -8.6916 C.2       10 UNK         0.4970 
     63 O          35.5926    0.3946   -9.3292 O.2       10 UNK        -0.4914 
     64 N          34.4588    0.0143   -7.3976 N.am      11 UNK        -0.4285 
     65 CA         35.5822   -0.1988   -6.4758 C.3       11 UNK         0.1007 
     66 C          35.9696    1.0705   -5.6585 C.2       11 UNK         0.5703 
     67 N          35.4230    2.2484   -5.9416 N.am      11 UNK        -0.7361 
     68 O          36.8060    0.9957   -4.7614 O.2       11 UNK        -0.4986 
     69 C69        35.3537   -1.4556   -5.5879 C.3       12 UNK        -0.0947 
     70 S70        33.6920   -1.5597   -4.8285 S.3       12 UNK        -0.2240 
     71 C71        32.9808   -2.8942   -5.8392 C.3       12 UNK         0.0194 
     72 H72        24.1885   -0.1139    0.5012 H         1 UNK         0.0906 
     73 H73        24.2526   -1.8036    1.0126 H         1 UNK         0.0906 
     74 H74        25.0365   -0.5566    1.9838 H         1 UNK         0.0906 
     75 H75        25.7369   -2.9997   -0.1892 H         1 UNK         0.3140 
     76 H76        28.4307   -2.2366   -0.4772 H         1 UNK         0.1085 
     77 H77        27.2670   -4.6417   -0.5350 H         1 UNK         0.0836 
     78 H78        27.2349   -4.4076   -2.2525 H         1 UNK         0.0836 
     79 H79        28.7909   -6.0120   -3.1815 H         1 UNK         0.0731 
     80 H80        30.5019   -6.1373   -2.8880 H         1 UNK         0.0731 
     81 H81        32.1018   -4.5444   -3.8591 H         1 UNK         0.1312 
     82 H82        30.6845   -1.9348   -6.9532 H         1 UNK         0.1406 
     83 H83        27.8950   -4.1018   -4.5248 H         1 UNK         0.1631 
     84 H84        28.3869   -1.5590   -7.2793 H         1 UNK         0.0717 
     85 H85        27.3639   -1.7657   -5.8888 H         1 UNK         0.0717 
     86 H86        25.1192   -4.6509   -6.7765 H         1 UNK         0.0934 
     87 H87        25.9075   -3.9197   -5.4386 H         1 UNK         0.0934 
     88 H88        23.5339   -3.1286   -6.5680 H         1 UNK         0.0739 
     89 H89        25.2416   -1.8926   -4.6095 H         1 UNK         0.3093 
     90 H90        22.4034   -0.1578   -3.1803 H         1 UNK         0.0818 
     91 H91        22.4415   -2.5628   -2.5083 H         1 UNK         0.0819 
     92 H92        24.1868   -2.4908   -2.3194 H         1 UNK         0.0819 
     93 H93        23.1366   -1.5173   -1.2880 H         1 UNK         0.0819 
     94 H94        25.3670   -0.3680   -2.9009 H         1 UNK         0.3041 
     95 H95        25.8769    3.0159   -3.3619 H         1 UNK         0.0784 
     96 H96        24.7415    3.5464   -1.2438 H         1 UNK         0.0793 
     97 H97        25.3679    2.0921   -0.4858 H         1 UNK         0.0793 
     98 H98        26.4664    3.3885   -0.9568 H         1 UNK         0.0793 
     99 H99        27.1541    0.8809   -1.7744 H         1 UNK         0.3024 
    100 H100       28.8396   -0.4631   -4.5721 H         1 UNK         0.1171 
    101 H101       30.2267    1.2969   -2.4870 H         1 UNK         0.0786 
    102 H102       30.2783    1.5705   -4.2199 H         1 UNK         0.0786 
    103 H103       30.9882    0.1108   -3.5529 H         1 UNK         0.0786 
    104 H104       29.3501   -0.8658   -1.8210 H         1 UNK         0.2977 
    105 H105       23.6505   -3.0280   -8.8337 H         1 UNK         0.3127 
    106 H106       23.2938   -0.4264   -9.8247 H         1 UNK         0.0770 
    107 H107       23.5565   -3.0884  -11.3253 H         1 UNK         0.0814 
    108 H108       22.8850   -1.6077  -11.9927 H         1 UNK         0.0814 
    109 H109       22.0664   -2.4105  -10.6655 H         1 UNK         0.0814 
    110 H110       26.2679   -2.2446   -9.7130 H         1 UNK         0.2983 
    111 H111       27.5879   -0.8691  -11.9077 H         1 UNK         0.0947 
    112 H112       28.2898   -3.1510  -11.0876 H         1 UNK         0.0806 
    113 H113       28.8347   -2.4197   -9.5767 H         1 UNK         0.0806 
    114 H114       29.6062   -1.9895  -11.0896 H         1 UNK         0.0806 
    115 H115       26.7673    0.0385   -8.6915 H         1 UNK         0.3000 
    116 H116       27.1740    1.7191   -7.3592 H         1 UNK         0.0850 
    117 H117       27.5849    3.9461   -8.3023 H         1 UNK         0.0810 
    118 H118       26.5560    3.0590   -9.4042 H         1 UNK         0.0810 
    119 H119       28.2634    3.2583   -9.7781 H         1 UNK         0.0810 
    120 H120       29.5003    3.6964   -7.7696 H         1 UNK         0.3040 
    121 H121       31.3805    2.3443   -6.0420 H         1 UNK         0.0766 
    122 H122       31.4600    5.1419   -7.2789 H         1 UNK         0.0812 
    123 H123       30.7361    4.7262   -5.7239 H         1 UNK         0.0812 
    124 H124       32.4662    4.5651   -5.9569 H         1 UNK         0.0812 
    125 H125       31.3787    0.8444   -8.2911 H         1 UNK         0.3205 
    126 H126       33.4315    1.3768  -10.1981 H         1 UNK         0.0754 
    127 H127       33.2540   -1.0862  -10.6587 H         1 UNK         0.0769 
    128 H128       31.6713   -0.3336  -10.5524 H         1 UNK         0.0769 
    129 H129       32.2828   -1.2938   -9.2065 H         1 UNK         0.0769 
    130 H130       33.5479    0.0024   -6.9641 H         1 UNK         0.2981 
    131 H131       36.4729   -0.4072   -7.0708 H         1 UNK         0.0541 
    132 H132       35.7018    3.0522   -5.4022 H         1 UNK         0.3459 
    133 H133       34.7798    2.3655   -6.7148 H         1 UNK         0.3459 
    134 H134       36.1000   -1.5235   -4.7946 H         1 UNK         0.0612 
    135 H135       35.5163   -2.3456   -6.1973 H         1 UNK         0.0612 
    136 H136       33.0301   -2.6142   -6.8923 H         1 UNK         0.0624 
    137 H137       33.5920   -3.7913   -5.7313 H         1 UNK         0.0624 
@<TRIPOS>BOND
     1    1    2 1    
     2    1   72 1    
     3    1   73 1    
     4    1   74 1    
     5    2    3 2    
     6    2    4 am   BACKBONE|DICT|INTERRES
     7    4    5 1    
     8    4   75 1    
     9    5    6 1    
    10    5   35 1    
    11    5   76 1    
    12    6    7 1    
    13    6   77 1    
    14    6   78 1    
    15    7    8 1    
    16    8    9 1    
    17    8   79 1    
    18    8   80 1    
    19    9   10 ar   
    20    9   14 ar   
    21   10   11 ar   
    22   10   81 1    
    23   11   12 ar   
    24   11   71 1    
    25   12   13 ar   
    26   12   82 1    
    27   13   14 ar   
    28   13   15 1    
    29   14   83 1    
    30   15   16 1    
    31   15   84 1    
    32   15   85 1    
    33   16   17 1    
    34   17   18 1    
    35   17   86 1    
    36   17   87 1    
    37   18   19 1    
    38   18   37 1    
    39   18   88 1    
    40   19   20 am   BACKBONE|DICT|INTERRES
    41   19   89 1    
    42   20   21 2    
    43   20   22 1    
    44   22   23 1    
    45   22   24 1    
    46   22   90 1    
    47   23   91 1    
    48   23   92 1    
    49   23   93 1    
    50   24   25 am   BACKBONE|DICT|INTERRES
    51   24   94 1    
    52   25   26 2    
    53   25   27 1    
    54   27   28 1    
    55   27   29 1    
    56   27   95 1    
    57   28   96 1    
    58   28   97 1    
    59   28   98 1    
    60   29   30 am   BACKBONE|DICT|INTERRES
    61   29   99 1    
    62   30   31 2    
    63   30   32 1    
    64   32   33 1    
    65   32   34 1    
    66   32  100 1    
    67   33  101 1    
    68   33  102 1    
    69   33  103 1    
    70   34   35 am   BACKBONE|DICT|INTERRES
    71   34  104 1    
    72   35   36 2    
    73   37   38 2    
    74   37   39 am   BACKBONE|DICT|INTERRES
    75   39   40 1    
    76   39  105 1    
    77   40   41 1    
    78   40   42 1    
    79   40  106 1    
    80   41  107 1    
    81   41  108 1    
    82   41  109 1    
    83   42   43 2    
    84   42   44 am   BACKBONE|DICT|INTERRES
    85   44   45 1    
    86   44  110 1    
    87   45   46 1    
    88   45   47 1    
    89   45  111 1    
    90   46  112 1    
    91   46  113 1    
    92   46  114 1    
    93   47   48 2    
    94   47   49 am   BACKBONE|DICT|INTERRES
    95   49   50 1    
    96   49  115 1    
    97   50   51 1    
    98   50   52 1    
    99   50  116 1    
   100   51  117 1    
   101   51  118 1    
   102   51  119 1    
   103   52   53 2    
   104   52   54 am   BACKBONE|DICT|INTERRES
   105   54   55 1    
   106   54  120 1    
   107   55   56 1    
   108   55   57 1    
   109   55  121 1    
   110   56  122 1    
   111   56  123 1    
   112   56  124 1    
   113   57   58 2    
   114   57   59 am   BACKBONE|DICT|INTERRES
   115   59   60 1    
   116   59  125 1    
   117   60   61 1    
   118   60   62 1    
   119   60  126 1    
   120   61  127 1    
   121   61  128 1    
   122   61  129 1    
   123   62   63 2    
   124   62   64 am   BACKBONE|DICT|INTERRES
   125   64   65 1    
   126   64  130 1    
   127   65   66 1    
   128   65   69 1    
   129   65  131 1    
   130   66   67 am   BACKBONE|DICT|INTERRES
   131   66   68 2    
   132   67  132 1    
   133   67  133 1    
   134   69   70 1    
   135   69  134 1    
   136   69  135 1    
   137   70   71 1    
   138   71  136 1    
   139   71  137 1    
@<TRIPOS>SUBSTRUCTURE
     1 UNK         1 GROUP             0       ****    0 ROOT    
