@<TRIPOS>MOLECULE
3R137
137   139    1
SMALL
USER_CHARGES


@<TRIPOS>ATOM
      1 CA         23.5989   -1.5902   -6.6410 C.3       0 UNK        -0.2020 
      2 C          23.6174   -2.7177   -5.6226 C.2       0 UNK         0.4855 
      3 O          22.6531   -3.4772   -5.5277 O.2       0 UNK        -0.5197 
      4 N          24.6897   -2.8143   -4.8284 N.am      1 UNK        -0.4892 
      5 CA         24.8771   -3.8167   -3.7711 C.3       1 UNK         0.0835 
      6 C6         26.3795   -4.1387   -3.5566 C.3       12 UNK        -0.0855 
      7 S7         27.0846   -4.9620   -5.0224 S.3       12 UNK        -0.2931 
      8 C8         28.6389   -5.6474   -4.3680 C.3       12 UNK         0.0378 
      9 C9         29.7964   -4.6645   -4.4808 C.ar      12 UNK        -0.0802 
     10 C10        30.2854   -4.3099   -5.7423 C.ar      12 UNK        -0.0944 
     11 C11        31.3879   -3.4606   -5.8661 C.ar      12 UNK        -0.0787 
     12 C12        32.0042   -2.9634   -4.7144 C.ar      12 UNK        -0.0862 
     13 C13        31.5194   -3.2995   -3.4470 C.ar      12 UNK        -0.0733 
     14 C14        30.4150   -4.1523   -3.3352 C.ar      12 UNK        -0.0832 
     15 C15        32.2062   -2.7557   -2.2011 C.3       12 UNK         0.0240 
     16 S16        31.1650   -1.5681   -1.2952 S.3       12 UNK        -0.2522 
     17 C17        30.9423   -0.2284   -2.5191 C.3       12 UNK        -0.0967 
     18 CA         29.5927   -0.3428   -3.2816 C.3       5 UNK         0.0660 
     19 N          28.4304   -0.4611   -2.3960 N.am      5 UNK        -0.4015 
     20 C          27.9339    0.4837   -1.5876 C.2       4 UNK         0.4946 
     21 O          28.3880    1.6240   -1.4705 O.2       4 UNK        -0.5353 
     22 CA         26.6914    0.0719   -0.7842 C.3       4 UNK         0.0277 
     23 CB         26.8060    0.5094    0.6867 C.3       4 UNK        -0.1981 
     24 N          25.4417    0.5916   -1.3432 N.am      4 UNK        -0.4209 
     25 C          25.0024    0.4557   -2.6023 C.2       3 UNK         0.4942 
     26 O          25.6419   -0.0586   -3.5268 O.2       3 UNK        -0.5208 
     27 CA         23.5341    0.8502   -2.8262 C.3       3 UNK         0.0250 
     28 CB         23.2952    1.4827   -4.2083 C.3       3 UNK        -0.1990 
     29 N          22.7509   -0.3760   -2.7075 N.am      3 UNK        -0.4232 
     30 C          22.3892   -0.9368   -1.5435 C.2       2 UNK         0.4993 
     31 O          22.4024   -0.3480   -0.4619 O.2       2 UNK        -0.5286 
     32 CA         22.0293   -2.4328   -1.5932 C.3       2 UNK         0.0209 
     33 CB         20.5398   -2.6280   -1.9178 C.3       2 UNK        -0.1931 
     34 N          22.8471   -3.1521   -2.5772 N.am      2 UNK        -0.4546 
     35 C          24.1743   -3.3322   -2.4868 C.2       1 UNK         0.5154 
     36 O          24.8311   -3.0678   -1.4782 O.2       1 UNK        -0.5181 
     37 C          29.3985    0.7573   -4.3487 C.2       5 UNK         0.5014 
     38 O          30.3372    1.4940   -4.6535 O.2       5 UNK        -0.5248 
     39 N          28.1801    0.8453   -4.8993 N.am      6 UNK        -0.4434 
     40 CA         27.8025    1.7799   -5.9602 C.3       6 UNK         0.0363 
     41 CB         26.9732    2.9253   -5.3520 C.3       6 UNK        -0.1936 
     42 C          27.0688    1.0507   -7.0989 C.2       6 UNK         0.5081 
     43 O          26.2061    1.6414   -7.7494 O.2       6 UNK        -0.5248 
     44 N          27.4163   -0.2248   -7.3272 N.am      7 UNK        -0.4718 
     45 CA         26.8582   -1.0581   -8.3991 C.3       7 UNK         0.0273 
     46 CB         27.1475   -2.5362   -8.0931 C.3       7 UNK        -0.1935 
     47 C          27.3607   -0.6781   -9.8038 C.2       7 UNK         0.5018 
     48 O          26.6760   -0.9656  -10.7865 O.2       7 UNK        -0.5186 
     49 N          28.5284   -0.0336   -9.8746 N.am      8 UNK        -0.4240 
     50 CA         29.1611    0.4906  -11.0780 C.3       8 UNK         0.0235 
     51 CB         29.8850   -0.6444  -11.8278 C.3       8 UNK        -0.2000 
     52 C          30.1511    1.5754  -10.6447 C.2       8 UNK         0.4941 
     53 O          30.5406    1.6102   -9.4748 O.2       8 UNK        -0.5273 
     54 N          30.5942    2.4077  -11.5969 N.am      9 UNK        -0.4262 
     55 CA         31.6159    3.4429  -11.3792 C.3       9 UNK         0.0264 
     56 CB         31.7741    4.2849  -12.6555 C.3       9 UNK        -0.1955 
     57 C          32.9784    2.8771  -10.9323 C.2       9 UNK         0.5031 
     58 O          33.7024    3.5443  -10.1921 O.2       9 UNK        -0.5390 
     59 N          33.2778    1.6401  -11.3533 N.am      10 UNK        -0.4204 
     60 CA         34.4502    0.8626  -10.9498 C.3       10 UNK         0.0237 
     61 CB         34.5538   -0.3815  -11.8480 C.3       10 UNK        -0.1985 
     62 C          34.4537    0.4502   -9.4645 C.2       10 UNK         0.4970 
     63 O          35.5241    0.1244   -8.9493 O.2       10 UNK        -0.4914 
     64 N          33.2865    0.4597   -8.8036 N.am      11 UNK        -0.4285 
     65 CA         33.1482    0.1433   -7.3737 C.3       11 UNK         0.1007 
     66 C          33.6417    1.2698   -6.4199 C.2       11 UNK         0.5703 
     67 N          33.8896    2.4866   -6.8941 N.am      11 UNK        -0.7361 
     68 O          33.8308    1.0241   -5.2311 O.2       11 UNK        -0.4986 
     69 C69        31.7084   -0.3028   -7.0075 C.3       12 UNK        -0.0947 
     70 S70        31.0878   -1.6989   -8.0030 S.3       12 UNK        -0.2240 
     71 C71        31.9373   -3.1182   -7.2435 C.3       12 UNK         0.0194 
     72 H72        23.6715   -1.9968   -7.6492 H         1 UNK         0.0906 
     73 H73        22.6676   -1.0294   -6.5667 H         1 UNK         0.0906 
     74 H74        24.4239   -0.8954   -6.4872 H         1 UNK         0.0906 
     75 H75        25.4171   -2.1146   -4.8885 H         1 UNK         0.3140 
     76 H76        24.3809   -4.7456   -4.0631 H         1 UNK         0.1085 
     77 H77        26.5072   -4.8001   -2.6974 H         1 UNK         0.0836 
     78 H78        26.9511   -3.2343   -3.3429 H         1 UNK         0.0836 
     79 H79        28.4988   -5.9788   -3.3380 H         1 UNK         0.0731 
     80 H80        28.8878   -6.5427   -4.9396 H         1 UNK         0.0731 
     81 H81        29.8128   -4.7081   -6.6301 H         1 UNK         0.1312 
     82 H82        32.8653   -2.3154   -4.8061 H         1 UNK         0.1406 
     83 H83        30.0481   -4.4233   -2.3543 H         1 UNK         0.1631 
     84 H84        33.1544   -2.2780   -2.4531 H         1 UNK         0.0717 
     85 H85        32.4509   -3.5861   -1.5374 H         1 UNK         0.0717 
     86 H86        30.9997    0.7258   -1.9923 H         1 UNK         0.0934 
     87 H87        31.7824   -0.2364   -3.2166 H         1 UNK         0.0934 
     88 H88        29.6195   -1.2739   -3.8486 H         1 UNK         0.0739 
     89 H89        27.9564   -1.3512   -2.4238 H         1 UNK         0.3093 
     90 H90        26.6173   -1.0176   -0.7965 H         1 UNK         0.0818 
     91 H91        25.9815    0.1185    1.2834 H         1 UNK         0.0819 
     92 H92        27.7304    0.1391    1.1323 H         1 UNK         0.0819 
     93 H93        26.8088    1.5956    0.7868 H         1 UNK         0.0819 
     94 H94        24.8023    0.9928   -0.6719 H         1 UNK         0.3041 
     95 H95        23.2207    1.5668   -2.0635 H         1 UNK         0.0784 
     96 H96        22.2331    1.6495   -4.3886 H         1 UNK         0.0793 
     97 H97        23.7866    2.4531   -4.2768 H         1 UNK         0.0793 
     98 H98        23.6781    0.8655   -5.0203 H         1 UNK         0.0793 
     99 H99        22.7231   -0.9600   -3.5291 H         1 UNK         0.3024 
    100 H100       22.2311   -2.8550   -0.6060 H         1 UNK         0.1171 
    101 H101       20.2846   -2.2393   -2.9045 H         1 UNK         0.0786 
    102 H102       19.9120   -2.1113   -1.1904 H         1 UNK         0.0786 
    103 H103       20.2638   -3.6823   -1.8910 H         1 UNK         0.0786 
    104 H104       22.4081   -3.3881   -3.4615 H         1 UNK         0.2977 
    105 H105       27.4283    0.2666   -4.5347 H         1 UNK         0.3127 
    106 H106       28.6954    2.2132   -6.4162 H         1 UNK         0.0770 
    107 H107       26.0472    2.5545   -4.9150 H         1 UNK         0.0814 
    108 H108       26.7096    3.6683   -6.1057 H         1 UNK         0.0814 
    109 H109       27.5287    3.4415   -4.5688 H         1 UNK         0.0814 
    110 H110       28.1457   -0.6354   -6.7621 H         1 UNK         0.2983 
    111 H111       25.7767   -0.9180   -8.4151 H         1 UNK         0.0947 
    112 H112       26.7320   -3.1845   -8.8658 H         1 UNK         0.0806 
    113 H113       26.7009   -2.8387   -7.1466 H         1 UNK         0.0806 
    114 H114       28.2175   -2.7390   -8.0389 H         1 UNK         0.0806 
    115 H115       29.0253    0.1940   -9.0215 H         1 UNK         0.3000 
    116 H116       28.4009    0.9426  -11.7188 H         1 UNK         0.0850 
    117 H117       30.6582   -1.1040  -11.2101 H         1 UNK         0.0810 
    118 H118       29.1902   -1.4293  -12.1270 H         1 UNK         0.0810 
    119 H119       30.3637   -0.2783  -12.7365 H         1 UNK         0.0810 
    120 H120       30.2266    2.3211  -12.5343 H         1 UNK         0.3040 
    121 H121       31.2589    4.0960  -10.5799 H         1 UNK         0.0766 
    122 H122       30.8364    4.7672  -12.9324 H         1 UNK         0.0812 
    123 H123       32.1054    3.6812  -13.5013 H         1 UNK         0.0812 
    124 H124       32.5118    5.0758  -12.5113 H         1 UNK         0.0812 
    125 H125       32.6203    1.1803  -11.9654 H         1 UNK         0.3205 
    126 H126       35.3344    1.4817  -11.1157 H         1 UNK         0.0754 
    127 H127       35.4388   -0.9699  -11.6006 H         1 UNK         0.0769 
    128 H128       34.6350   -0.1074  -12.9001 H         1 UNK         0.0769 
    129 H129       33.6871   -1.0345  -11.7350 H         1 UNK         0.0769 
    130 H130       32.4396    0.7700   -9.2649 H         1 UNK         0.2981 
    131 H131       33.8024   -0.7057   -7.1700 H         1 UNK         0.0541 
    132 H132       34.2172    3.2019   -6.2649 H         1 UNK         0.3459 
    133 H133       33.7521    2.6973   -7.8719 H         1 UNK         0.3459 
    134 H134       31.0163    0.5294   -7.1399 H         1 UNK         0.0612 
    135 H135       31.6444   -0.5703   -5.9538 H         1 UNK         0.0612 
    136 H136       31.8230   -3.9792   -7.9036 H         1 UNK         0.0624 
    137 H137       33.0089   -2.9232   -7.1916 H         1 UNK         0.0624 
@<TRIPOS>BOND
     1    1    2 1    
     2    1   72 1    
     3    1   73 1    
     4    1   74 1    
     5    2    3 2    
     6    2    4 am   BACKBONE|DICT|INTERRES
     7    4    5 1    
     8    4   75 1    
     9    5    6 1    
    10    5   35 1    
    11    5   76 1    
    12    6    7 1    
    13    6   77 1    
    14    6   78 1    
    15    7    8 1    
    16    8    9 1    
    17    8   79 1    
    18    8   80 1    
    19    9   10 ar   
    20    9   14 ar   
    21   10   11 ar   
    22   10   81 1    
    23   11   12 ar   
    24   11   71 1    
    25   12   13 ar   
    26   12   82 1    
    27   13   14 ar   
    28   13   15 1    
    29   14   83 1    
    30   15   16 1    
    31   15   84 1    
    32   15   85 1    
    33   16   17 1    
    34   17   18 1    
    35   17   86 1    
    36   17   87 1    
    37   18   19 1    
    38   18   37 1    
    39   18   88 1    
    40   19   20 am   BACKBONE|DICT|INTERRES
    41   19   89 1    
    42   20   21 2    
    43   20   22 1    
    44   22   23 1    
    45   22   24 1    
    46   22   90 1    
    47   23   91 1    
    48   23   92 1    
    49   23   93 1    
    50   24   25 am   BACKBONE|DICT|INTERRES
    51   24   94 1    
    52   25   26 2    
    53   25   27 1    
    54   27   28 1    
    55   27   29 1    
    56   27   95 1    
    57   28   96 1    
    58   28   97 1    
    59   28   98 1    
    60   29   30 am   BACKBONE|DICT|INTERRES
    61   29   99 1    
    62   30   31 2    
    63   30   32 1    
    64   32   33 1    
    65   32   34 1    
    66   32  100 1    
    67   33  101 1    
    68   33  102 1    
    69   33  103 1    
    70   34   35 am   BACKBONE|DICT|INTERRES
    71   34  104 1    
    72   35   36 2    
    73   37   38 2    
    74   37   39 am   BACKBONE|DICT|INTERRES
    75   39   40 1    
    76   39  105 1    
    77   40   41 1    
    78   40   42 1    
    79   40  106 1    
    80   41  107 1    
    81   41  108 1    
    82   41  109 1    
    83   42   43 2    
    84   42   44 am   BACKBONE|DICT|INTERRES
    85   44   45 1    
    86   44  110 1    
    87   45   46 1    
    88   45   47 1    
    89   45  111 1    
    90   46  112 1    
    91   46  113 1    
    92   46  114 1    
    93   47   48 2    
    94   47   49 am   BACKBONE|DICT|INTERRES
    95   49   50 1    
    96   49  115 1    
    97   50   51 1    
    98   50   52 1    
    99   50  116 1    
   100   51  117 1    
   101   51  118 1    
   102   51  119 1    
   103   52   53 2    
   104   52   54 am   BACKBONE|DICT|INTERRES
   105   54   55 1    
   106   54  120 1    
   107   55   56 1    
   108   55   57 1    
   109   55  121 1    
   110   56  122 1    
   111   56  123 1    
   112   56  124 1    
   113   57   58 2    
   114   57   59 am   BACKBONE|DICT|INTERRES
   115   59   60 1    
   116   59  125 1    
   117   60   61 1    
   118   60   62 1    
   119   60  126 1    
   120   61  127 1    
   121   61  128 1    
   122   61  129 1    
   123   62   63 2    
   124   62   64 am   BACKBONE|DICT|INTERRES
   125   64   65 1    
   126   64  130 1    
   127   65   66 1    
   128   65   69 1    
   129   65  131 1    
   130   66   67 am   BACKBONE|DICT|INTERRES
   131   66   68 2    
   132   67  132 1    
   133   67  133 1    
   134   69   70 1    
   135   69  134 1    
   136   69  135 1    
   137   70   71 1    
   138   71  136 1    
   139   71  137 1    
@<TRIPOS>SUBSTRUCTURE
     1 UNK         1 GROUP             0       ****    0 ROOT    
