@<TRIPOS>MOLECULE
3R137
137   139    1
SMALL
USER_CHARGES


@<TRIPOS>ATOM
      1 CA         23.7192   -4.1142   -7.6253 C.3       0 UNK        -0.2020 
      2 C          24.2646   -5.0842   -6.5888 C.2       0 UNK         0.4855 
      3 O          23.5256   -5.9373   -6.0972 O.2       0 UNK        -0.5197 
      4 N          25.5575   -4.9635   -6.2573 N.am      1 UNK        -0.4892 
      5 CA         26.2476   -5.7971   -5.2636 C.3       1 UNK         0.0835 
      6 C6         27.7874   -5.7024   -5.4078 C.3       12 UNK        -0.0855 
      7 S7         28.4741   -4.0218   -5.1726 S.3       12 UNK        -0.2931 
      8 C8         29.2911   -4.2301   -3.5596 C.3       12 UNK         0.0378 
      9 C9         30.0960   -3.0000   -3.1729 C.ar      12 UNK        -0.0802 
     10 C10        31.4067   -2.8468   -3.6336 C.ar      12 UNK        -0.0944 
     11 C11        32.1638   -1.7309   -3.2652 C.ar      12 UNK        -0.0787 
     12 C12        31.5950   -0.7546   -2.4421 C.ar      12 UNK        -0.0862 
     13 C13        30.2850   -0.8972   -1.9725 C.ar      12 UNK        -0.0733 
     14 C14        29.5441   -2.0281   -2.3338 C.ar      12 UNK        -0.0832 
     15 C15        29.6801    0.1625   -1.0594 C.3       12 UNK         0.0240 
     16 S16        28.1429    0.8787   -1.7263 S.3       12 UNK        -0.2522 
     17 C17        28.7026    1.5727   -3.3177 C.3       12 UNK        -0.0967 
     18 CA         28.3274    0.6596   -4.5197 C.3       5 UNK         0.0660 
     19 N          26.8762    0.4661   -4.6449 N.am      5 UNK        -0.4015 
     20 C          25.9741    1.3005   -5.1911 C.2       4 UNK         0.4946 
     21 O          26.2567    2.3421   -5.7850 O.2       4 UNK        -0.5353 
     22 CA         24.4879    0.9253   -5.0285 C.3       4 UNK         0.0277 
     23 CB         24.0430   -0.0144   -6.1609 C.3       4 UNK        -0.1981 
     24 N          24.1983    0.2919   -3.7407 N.am      4 UNK        -0.4209 
     25 C          24.3789    0.8588   -2.5398 C.2       3 UNK         0.4942 
     26 O          24.6023    2.0603   -2.3855 O.2       3 UNK        -0.5208 
     27 CA         24.3236   -0.0559   -1.2959 C.3       3 UNK         0.0250 
     28 CB         23.1382    0.3323   -0.3950 C.3       3 UNK        -0.1990 
     29 N          24.2699   -1.5065   -1.5406 N.am      3 UNK        -0.4232 
     30 C          25.1392   -2.2507   -2.2407 C.2       2 UNK         0.4993 
     31 O          26.0840   -1.7812   -2.8797 O.2       2 UNK        -0.5286 
     32 CA         24.8890   -3.7668   -2.2763 C.3       2 UNK         0.0209 
     33 CB         23.4104   -4.1655   -2.0702 C.3       2 UNK        -0.1931 
     34 N          25.3668   -4.2729   -3.5576 N.am      2 UNK        -0.4546 
     35 C          25.7829   -5.5167   -3.8171 C.2       1 UNK         0.5154 
     36 O          25.8039   -6.4221   -2.9814 O.2       1 UNK        -0.5181 
     37 C          28.9832    1.1002   -5.8446 C.2       5 UNK         0.5014 
     38 O          29.1765    0.2679   -6.7330 O.2       5 UNK        -0.5248 
     39 N          29.2797    2.4021   -5.9724 N.am      6 UNK        -0.4434 
     40 CA         29.8512    3.0456   -7.1561 C.3       6 UNK         0.0363 
     41 CB         30.0626    4.5389   -6.8640 C.3       6 UNK        -0.1936 
     42 C          29.0220    2.8685   -8.4391 C.2       6 UNK         0.5081 
     43 O          29.6052    2.8031   -9.5197 O.2       6 UNK        -0.5248 
     44 N          27.6933    2.7620   -8.3083 N.am      7 UNK        -0.4718 
     45 CA         26.7830    2.5196   -9.4301 C.3       7 UNK         0.0273 
     46 CB         25.3712    2.9907   -9.0437 C.3       7 UNK        -0.1935 
     47 C          26.7610    1.0503   -9.8927 C.2       7 UNK         0.5018 
     48 O          26.2476    0.7834  -10.9801 O.2       7 UNK        -0.5186 
     49 N          27.2909    0.1305   -9.0738 N.am      8 UNK        -0.4240 
     50 CA         27.3058   -1.3076   -9.3370 C.3       8 UNK         0.0235 
     51 CB         26.7467   -2.0529   -8.1135 C.3       8 UNK        -0.2000 
     52 C          28.7149   -1.8089   -9.6752 C.2       8 UNK         0.4941 
     53 O          28.8998   -2.4303  -10.7220 O.2       8 UNK        -0.5273 
     54 N          29.6717   -1.5582   -8.7738 N.am      9 UNK        -0.4262 
     55 CA         31.0133   -2.1465   -8.7954 C.3       9 UNK         0.0264 
     56 CB         31.3045   -2.7160   -7.3961 C.3       9 UNK        -0.1955 
     57 C          32.1131   -1.1633   -9.2307 C.2       9 UNK         0.5031 
     58 O          33.2757   -1.5669   -9.2824 O.2       9 UNK        -0.5390 
     59 N          31.7496    0.0954   -9.5264 N.am      10 UNK        -0.4204 
     60 CA         32.6421    1.2044   -9.9049 C.3       10 UNK         0.0237 
     61 CB         33.3546    0.9205  -11.2456 C.3       10 UNK        -0.1985 
     62 C          33.6174    1.6258   -8.7841 C.2       10 UNK         0.4970 
     63 O          34.6835    2.1721   -9.0706 O.2       10 UNK        -0.4914 
     64 N          33.2206    1.3890   -7.5278 N.am      11 UNK        -0.4285 
     65 CA         33.9658    1.7148   -6.3005 C.3       11 UNK         0.1007 
     66 C          34.0233    3.2296   -5.9354 C.2       11 UNK         0.5703 
     67 N          33.4610    4.1363   -6.7250 N.am      11 UNK        -0.7361 
     68 O          34.6053    3.5940   -4.9165 O.2       11 UNK        -0.4986 
     69 C69        33.4621    0.8553   -5.1095 C.3       12 UNK        -0.0947 
     70 S70        33.7269   -0.9230   -5.4087 S.3       12 UNK        -0.2240 
     71 C71        33.6075   -1.6048   -3.7288 C.3       12 UNK         0.0194 
     72 H72        23.5001   -3.1506   -7.1667 H         1 UNK         0.0906 
     73 H73        24.4300   -3.9642   -8.4371 H         1 UNK         0.0906 
     74 H74        22.7971   -4.4990   -8.0606 H         1 UNK         0.0906 
     75 H75        26.1266   -4.2472   -6.6843 H         1 UNK         0.3140 
     76 H76        25.9705   -6.8337   -5.4702 H         1 UNK         0.1085 
     77 H77        28.0752   -6.0363   -6.4060 H         1 UNK         0.0836 
     78 H78        28.2716   -6.4031   -4.7250 H         1 UNK         0.0836 
     79 H79        28.5384   -4.4443   -2.7991 H         1 UNK         0.0731 
     80 H80        29.9514   -5.0981   -3.5944 H         1 UNK         0.0731 
     81 H81        31.8409   -3.6009   -4.2760 H         1 UNK         0.1312 
     82 H82        32.1795    0.1096   -2.1574 H         1 UNK         0.1406 
     83 H83        28.5301   -2.1403   -1.9741 H         1 UNK         0.1631 
     84 H84        30.3905    0.9690   -0.8712 H         1 UNK         0.0717 
     85 H85        29.4645   -0.2889   -0.0902 H         1 UNK         0.0717 
     86 H86        29.7815    1.7344   -3.2694 H         1 UNK         0.0934 
     87 H87        28.2444    2.5579   -3.4207 H         1 UNK         0.0934 
     88 H88        28.7341   -0.3327   -4.3258 H         1 UNK         0.0739 
     89 H89        26.5274   -0.3501   -4.1488 H         1 UNK         0.3093 
     90 H90        23.9058    1.8471   -5.0907 H         1 UNK         0.0818 
     91 H91        22.9649   -0.1747   -6.1411 H         1 UNK         0.0819 
     92 H92        24.2898    0.3982   -7.1396 H         1 UNK         0.0819 
     93 H93        24.5273   -0.9880   -6.0851 H         1 UNK         0.0819 
     94 H94        24.0118   -0.6993   -3.7563 H         1 UNK         0.3041 
     95 H95        25.2450    0.1329   -0.7415 H         1 UNK         0.0784 
     96 H96        23.1641    1.3941   -0.1453 H         1 UNK         0.0793 
     97 H97        22.1821    0.1359   -0.8818 H         1 UNK         0.0793 
     98 H98        23.1567   -0.2164    0.5469 H         1 UNK         0.0793 
     99 H99        23.5106   -1.9929   -1.0860 H         1 UNK         0.3024 
    100 H100       25.4924   -4.2047   -1.4780 H         1 UNK         0.1171 
    101 H101       23.2755   -5.2431   -2.1666 H         1 UNK         0.0786 
    102 H102       22.7572   -3.6878   -2.8017 H         1 UNK         0.0786 
    103 H103       23.0555   -3.8973   -1.0746 H         1 UNK         0.0786 
    104 H104       25.4869   -3.5725   -4.2765 H         1 UNK         0.2977 
    105 H105       29.0239    3.0191   -5.2157 H         1 UNK         0.3127 
    106 H106       30.8238    2.5902   -7.3339 H         1 UNK         0.0770 
    107 H107       29.1185    5.0486   -6.6669 H         1 UNK         0.0814 
    108 H108       30.5317    5.0405   -7.7117 H         1 UNK         0.0814 
    109 H109       30.7112    4.6892   -6.0009 H         1 UNK         0.0814 
    110 H110       27.2801    2.7829   -7.3778 H         1 UNK         0.2983 
    111 H111       27.1136    3.1177  -10.2825 H         1 UNK         0.0947 
    112 H112       24.6738    2.8594   -9.8722 H         1 UNK         0.0806 
    113 H113       25.3651    4.0487   -8.7812 H         1 UNK         0.0806 
    114 H114       24.9764    2.4342   -8.1944 H         1 UNK         0.0806 
    115 H115       27.7424    0.4415   -8.2213 H         1 UNK         0.3000 
    116 H116       26.6642   -1.5474  -10.1880 H         1 UNK         0.0850 
    117 H117       26.8326   -3.1316   -8.2476 H         1 UNK         0.0810 
    118 H118       25.6922   -1.8222   -7.9723 H         1 UNK         0.0810 
    119 H119       27.2743   -1.7926   -7.1944 H         1 UNK         0.0810 
    120 H120       29.4412   -1.0006   -7.9508 H         1 UNK         0.3040 
    121 H121       31.0485   -2.9777   -9.5027 H         1 UNK         0.0766 
    122 H122       30.6299   -3.5387   -7.1622 H         1 UNK         0.0812 
    123 H123       31.1854   -1.9593   -6.6197 H         1 UNK         0.0812 
    124 H124       32.3202   -3.1066   -7.3229 H         1 UNK         0.0812 
    125 H125       30.7657    0.3226   -9.4727 H         1 UNK         0.3205 
    126 H126       31.9995    2.0686  -10.0690 H         1 UNK         0.0754 
    127 H127       33.8793    1.8066  -11.6050 H         1 UNK         0.0769 
    128 H128       32.6430    0.6325  -12.0194 H         1 UNK         0.0769 
    129 H129       34.0930    0.1235  -11.1544 H         1 UNK         0.0769 
    130 H130       32.3474    0.9051   -7.3881 H         1 UNK         0.2981 
    131 H131       35.0060    1.4375   -6.4814 H         1 UNK         0.0541 
    132 H132       33.0332    3.8648   -7.5935 H         1 UNK         0.3459 
    133 H133       33.5232    5.1097   -6.4728 H         1 UNK         0.3459 
    134 H134       32.4007    1.0307   -4.9241 H         1 UNK         0.0612 
    135 H135       33.9875    1.1217   -4.1907 H         1 UNK         0.0612 
    136 H136       34.0757   -2.5902   -3.7222 H         1 UNK         0.0624 
    137 H137       34.1867   -0.9918   -3.0367 H         1 UNK         0.0624 
@<TRIPOS>BOND
     1    1    2 1    
     2    1   72 1    
     3    1   73 1    
     4    1   74 1    
     5    2    3 2    
     6    2    4 am   BACKBONE|DICT|INTERRES
     7    4    5 1    
     8    4   75 1    
     9    5    6 1    
    10    5   35 1    
    11    5   76 1    
    12    6    7 1    
    13    6   77 1    
    14    6   78 1    
    15    7    8 1    
    16    8    9 1    
    17    8   79 1    
    18    8   80 1    
    19    9   10 ar   
    20    9   14 ar   
    21   10   11 ar   
    22   10   81 1    
    23   11   12 ar   
    24   11   71 1    
    25   12   13 ar   
    26   12   82 1    
    27   13   14 ar   
    28   13   15 1    
    29   14   83 1    
    30   15   16 1    
    31   15   84 1    
    32   15   85 1    
    33   16   17 1    
    34   17   18 1    
    35   17   86 1    
    36   17   87 1    
    37   18   19 1    
    38   18   37 1    
    39   18   88 1    
    40   19   20 am   BACKBONE|DICT|INTERRES
    41   19   89 1    
    42   20   21 2    
    43   20   22 1    
    44   22   23 1    
    45   22   24 1    
    46   22   90 1    
    47   23   91 1    
    48   23   92 1    
    49   23   93 1    
    50   24   25 am   BACKBONE|DICT|INTERRES
    51   24   94 1    
    52   25   26 2    
    53   25   27 1    
    54   27   28 1    
    55   27   29 1    
    56   27   95 1    
    57   28   96 1    
    58   28   97 1    
    59   28   98 1    
    60   29   30 am   BACKBONE|DICT|INTERRES
    61   29   99 1    
    62   30   31 2    
    63   30   32 1    
    64   32   33 1    
    65   32   34 1    
    66   32  100 1    
    67   33  101 1    
    68   33  102 1    
    69   33  103 1    
    70   34   35 am   BACKBONE|DICT|INTERRES
    71   34  104 1    
    72   35   36 2    
    73   37   38 2    
    74   37   39 am   BACKBONE|DICT|INTERRES
    75   39   40 1    
    76   39  105 1    
    77   40   41 1    
    78   40   42 1    
    79   40  106 1    
    80   41  107 1    
    81   41  108 1    
    82   41  109 1    
    83   42   43 2    
    84   42   44 am   BACKBONE|DICT|INTERRES
    85   44   45 1    
    86   44  110 1    
    87   45   46 1    
    88   45   47 1    
    89   45  111 1    
    90   46  112 1    
    91   46  113 1    
    92   46  114 1    
    93   47   48 2    
    94   47   49 am   BACKBONE|DICT|INTERRES
    95   49   50 1    
    96   49  115 1    
    97   50   51 1    
    98   50   52 1    
    99   50  116 1    
   100   51  117 1    
   101   51  118 1    
   102   51  119 1    
   103   52   53 2    
   104   52   54 am   BACKBONE|DICT|INTERRES
   105   54   55 1    
   106   54  120 1    
   107   55   56 1    
   108   55   57 1    
   109   55  121 1    
   110   56  122 1    
   111   56  123 1    
   112   56  124 1    
   113   57   58 2    
   114   57   59 am   BACKBONE|DICT|INTERRES
   115   59   60 1    
   116   59  125 1    
   117   60   61 1    
   118   60   62 1    
   119   60  126 1    
   120   61  127 1    
   121   61  128 1    
   122   61  129 1    
   123   62   63 2    
   124   62   64 am   BACKBONE|DICT|INTERRES
   125   64   65 1    
   126   64  130 1    
   127   65   66 1    
   128   65   69 1    
   129   65  131 1    
   130   66   67 am   BACKBONE|DICT|INTERRES
   131   66   68 2    
   132   67  132 1    
   133   67  133 1    
   134   69   70 1    
   135   69  134 1    
   136   69  135 1    
   137   70   71 1    
   138   71  136 1    
   139   71  137 1    
@<TRIPOS>SUBSTRUCTURE
     1 UNK         1 GROUP             0       ****    0 ROOT    
