@<TRIPOS>MOLECULE
3R137
137   139    1
SMALL
USER_CHARGES


@<TRIPOS>ATOM
      1 CA         28.5224    1.3338    1.8363 C.3       0 UNK        -0.2020 
      2 C          28.0476   -0.1172    1.8485 C.2       0 UNK         0.4855 
      3 O          27.3728   -0.5220    2.7929 O.2       0 UNK        -0.5197 
      4 N          28.3703   -0.9416    0.8411 N.am      1 UNK        -0.4892 
      5 CA         29.1125   -0.6167   -0.3862 C.3       1 UNK         0.0835 
      6 C6         29.5869   -1.8973   -1.1216 C.3       12 UNK        -0.0855 
      7 S7         28.2542   -3.1093   -1.4462 S.3       12 UNK        -0.2931 
      8 C8         29.2153   -4.5632   -1.9758 C.3       12 UNK         0.0378 
      9 C9         29.5682   -4.4937   -3.4543 C.ar      12 UNK        -0.0802 
     10 C10        30.7377   -3.8547   -3.8765 C.ar      12 UNK        -0.0944 
     11 C11        31.0492   -3.7678   -5.2372 C.ar      12 UNK        -0.0787 
     12 C12        30.1903   -4.3473   -6.1784 C.ar      12 UNK        -0.0862 
     13 C13        29.0323   -5.0162   -5.7666 C.ar      12 UNK        -0.0733 
     14 C14        28.7247   -5.0786   -4.4035 C.ar      12 UNK        -0.0832 
     15 C15        28.1444   -5.7264   -6.7814 C.3       12 UNK         0.0240 
     16 S16        26.4410   -5.0737   -6.8026 S.3       12 UNK        -0.2522 
     17 C17        26.2955   -4.3393   -8.4726 C.3       12 UNK        -0.0967 
     18 CA         26.1396   -2.7992   -8.4858 C.3       5 UNK         0.0660 
     19 N          24.9851   -2.3367   -7.7081 N.am      5 UNK        -0.4015 
     20 C          24.5146   -1.0828   -7.6984 C.2       4 UNK         0.4946 
     21 O          24.9878   -0.1761   -8.3847 O.2       4 UNK        -0.5353 
     22 CA         23.3604   -0.7675   -6.7311 C.3       4 UNK         0.0277 
     23 CB         22.0453   -1.4294   -7.1874 C.3       4 UNK        -0.1981 
     24 N          23.6620   -1.0631   -5.3216 N.am      4 UNK        -0.4209 
     25 C          23.9009   -2.2442   -4.7352 C.2       3 UNK         0.4942 
     26 O          23.8785   -3.3146   -5.3439 O.2       3 UNK        -0.5208 
     27 CA         24.2293   -2.2305   -3.2248 C.3       3 UNK         0.0250 
     28 CB         24.7434   -3.5970   -2.7308 C.3       3 UNK        -0.1990 
     29 N          25.1962   -1.2004   -2.8203 N.am      3 UNK        -0.4232 
     30 C          24.9599    0.1174   -2.7252 C.2       2 UNK         0.4993 
     31 O          23.8991    0.6356   -3.0765 O.2       2 UNK        -0.5286 
     32 CA         26.0805    1.0009   -2.1489 C.3       2 UNK         0.0209 
     33 CB         25.5317    2.1881   -1.3340 C.3       2 UNK        -0.1931 
     34 N          26.9964    0.2228   -1.3113 N.am      2 UNK        -0.4546 
     35 C          28.3318    0.3137   -1.3383 C.2       1 UNK         0.5154 
     36 O          28.9499    1.0983   -2.0571 O.2       1 UNK        -0.5181 
     37 C          27.4405   -2.0837   -8.0770 C.2       5 UNK         0.5014 
     38 O          28.2599   -1.7782   -8.9418 O.2       5 UNK        -0.5248 
     39 N          27.5754   -1.7792   -6.7795 N.am      6 UNK        -0.4434 
     40 CA         28.6795   -1.0089   -6.2143 C.3       6 UNK         0.0363 
     41 CB         28.5705   -1.0222   -4.6860 C.3       6 UNK        -0.1936 
     42 C          28.7256    0.4359   -6.7301 C.2       6 UNK         0.5081 
     43 O          29.8076    0.9402   -7.0280 O.2       6 UNK        -0.5248 
     44 N          27.5474    1.0626   -6.8578 N.am      7 UNK        -0.4718 
     45 CA         27.3857    2.4097   -7.4054 C.3       7 UNK         0.0273 
     46 CB         25.9887    2.9480   -7.0568 C.3       7 UNK        -0.1935 
     47 C          27.6338    2.4483   -8.9213 C.2       7 UNK         0.5018 
     48 O          28.2411    3.4037   -9.4041 O.2       7 UNK        -0.5186 
     49 N          27.1950    1.3995   -9.6340 N.am      8 UNK        -0.4240 
     50 CA         27.4582    1.1977  -11.0613 C.3       8 UNK         0.0235 
     51 CB         26.5987    0.0386  -11.5909 C.3       8 UNK        -0.2000 
     52 C          28.9497    0.9597  -11.3584 C.2       8 UNK         0.4941 
     53 O          29.4761    1.5465  -12.3047 O.2       8 UNK        -0.5273 
     54 N          29.6065    0.1259  -10.5380 N.am      9 UNK        -0.4262 
     55 CA         31.0476   -0.1368  -10.5919 C.3       9 UNK         0.0264 
     56 CB         31.3764   -1.3599   -9.7179 C.3       9 UNK        -0.1955 
     57 C          31.9007    1.0655  -10.1520 C.2       9 UNK         0.5031 
     58 O          33.0188    1.2171  -10.6462 O.2       9 UNK        -0.5390 
     59 N          31.3673    1.8707   -9.2206 N.am      10 UNK        -0.4204 
     60 CA         32.0076    2.9941   -8.5279 C.3       10 UNK         0.0237 
     61 CB         32.3435    4.1396   -9.5065 C.3       10 UNK        -0.1985 
     62 C          33.2089    2.5376   -7.6766 C.2       10 UNK         0.4970 
     63 O          34.2323    3.2239   -7.6325 O.2       10 UNK        -0.4914 
     64 N          33.0652    1.3719   -7.0335 N.am      11 UNK        -0.4285 
     65 CA         34.0767    0.7628   -6.1610 C.3       11 UNK         0.1007 
     66 C          34.2033    1.4643   -4.7781 C.2       11 UNK         0.5703 
     67 N          35.2834    1.2055   -4.0524 N.am      11 UNK        -0.7361 
     68 O          33.3390    2.2276   -4.3495 O.2       11 UNK        -0.4986 
     69 C69        33.8795   -0.7735   -6.0501 C.3       12 UNK        -0.0947 
     70 S70        32.2536   -1.2761   -5.3974 S.3       12 UNK        -0.2240 
     71 C71        32.3275   -3.0707   -5.6826 C.3       12 UNK         0.0194 
     72 H72        27.9703    1.9171    1.0967 H         1 UNK         0.0906 
     73 H73        28.3555    1.7933    2.8119 H         1 UNK         0.0906 
     74 H74        29.5901    1.4057    1.6213 H         1 UNK         0.0906 
     75 H75        28.0495   -1.8996    0.8860 H         1 UNK         0.3140 
     76 H76        30.0126   -0.0708   -0.0972 H         1 UNK         0.1085 
     77 H77        30.0800   -1.6440   -2.0621 H         1 UNK         0.0836 
     78 H78        30.3497   -2.3886   -0.5154 H         1 UNK         0.0836 
     79 H79        30.1182   -4.6596   -1.3710 H         1 UNK         0.0731 
     80 H80        28.6254   -5.4596   -1.7791 H         1 UNK         0.0731 
     81 H81        31.4016   -3.4101   -3.1481 H         1 UNK         0.1312 
     82 H82        30.4337   -4.2932   -7.2308 H         1 UNK         0.1406 
     83 H83        27.8265   -5.5889   -4.0826 H         1 UNK         0.1631 
     84 H84        28.1006   -6.7846   -6.5203 H         1 UNK         0.0717 
     85 H85        28.5883   -5.6861   -7.7763 H         1 UNK         0.0717 
     86 H86        27.1354   -4.6392   -9.1014 H         1 UNK         0.0934 
     87 H87        25.4192   -4.7868   -8.9441 H         1 UNK         0.0934 
     88 H88        25.9453   -2.5092   -9.5203 H         1 UNK         0.0739 
     89 H89        24.5800   -2.9968   -7.0465 H         1 UNK         0.3093 
     90 H90        23.2080    0.3123   -6.7751 H         1 UNK         0.0818 
     91 H91        21.2119   -1.1289   -6.5524 H         1 UNK         0.0819 
     92 H92        21.7965   -1.1351   -8.2079 H         1 UNK         0.0819 
     93 H93        22.1015   -2.5181   -7.1703 H         1 UNK         0.0819 
     94 H94        23.6902   -0.2549   -4.7023 H         1 UNK         0.3041 
     95 H95        23.2889   -2.0266   -2.7083 H         1 UNK         0.0784 
     96 H96        24.0158   -4.3862   -2.9257 H         1 UNK         0.0793 
     97 H97        25.6724   -3.8804   -3.2281 H         1 UNK         0.0793 
     98 H98        24.9270   -3.5903   -1.6562 H         1 UNK         0.0793 
     99 H99        26.1087   -1.5390   -2.5491 H         1 UNK         0.3024 
    100 H100       26.6165    1.4020   -3.0126 H         1 UNK         0.1171 
    101 H101       24.9491    1.8509   -0.4758 H         1 UNK         0.0786 
    102 H102       26.3390    2.8201   -0.9637 H         1 UNK         0.0786 
    103 H103       24.8841    2.8206   -1.9428 H         1 UNK         0.0786 
    104 H104       26.5767   -0.4374   -0.6697 H         1 UNK         0.2977 
    105 H105       26.8715   -2.1150   -6.1396 H         1 UNK         0.3127 
    106 H106       29.6060   -1.5013   -6.5096 H         1 UNK         0.0770 
    107 H107       27.6849   -0.4925   -4.3382 H         1 UNK         0.0814 
    108 H108       29.4395   -0.5406   -4.2363 H         1 UNK         0.0814 
    109 H109       28.5263   -2.0386   -4.3003 H         1 UNK         0.0814 
    110 H110       26.7024    0.5527   -6.6475 H         1 UNK         0.2983 
    111 H111       28.1272    3.0586   -6.9332 H         1 UNK         0.0947 
    112 H112       25.8655    3.9690   -7.4205 H         1 UNK         0.0806 
    113 H113       25.8280    2.9676   -5.9787 H         1 UNK         0.0806 
    114 H114       25.1962    2.3474   -7.5039 H         1 UNK         0.0806 
    115 H115       26.6400    0.6928   -9.1607 H         1 UNK         0.3000 
    116 H116       27.1571    2.1082  -11.5840 H         1 UNK         0.0850 
    117 H117       26.7265   -0.0787  -12.6678 H         1 UNK         0.0810 
    118 H118       25.5385    0.2133  -11.4060 H         1 UNK         0.0810 
    119 H119       26.8672   -0.9102  -11.1271 H         1 UNK         0.0810 
    120 H120       29.0770   -0.3943   -9.8399 H         1 UNK         0.3040 
    121 H121       31.3109   -0.3714  -11.6254 H         1 UNK         0.0766 
    122 H122       31.1097   -1.1937   -8.6730 H         1 UNK         0.0812 
    123 H123       32.4423   -1.5899   -9.7495 H         1 UNK         0.0812 
    124 H124       30.8428   -2.2467  -10.0602 H         1 UNK         0.0812 
    125 H125       30.4791    1.5871   -8.8192 H         1 UNK         0.3205 
    126 H126       31.2657    3.3725   -7.8230 H         1 UNK         0.0754 
    127 H127       32.6899    5.0230   -8.9687 H         1 UNK         0.0769 
    128 H128       31.4665    4.4345  -10.0831 H         1 UNK         0.0769 
    129 H129       33.1287    3.8585  -10.2088 H         1 UNK         0.0769 
    130 H130       32.1646    0.9111   -7.0563 H         1 UNK         0.2981 
    131 H131       35.0391    0.9140   -6.6541 H         1 UNK         0.0541 
    132 H132       36.0008    0.5812   -4.3866 H         1 UNK         0.3459 
    133 H133       35.3833    1.6458   -3.1513 H         1 UNK         0.3459 
    134 H134       34.6578   -1.2206   -5.4294 H         1 UNK         0.0612 
    135 H135       33.9977   -1.2193   -7.0390 H         1 UNK         0.0612 
    136 H136       32.5165   -3.2548   -6.7413 H         1 UNK         0.0624 
    137 H137       33.1752   -3.4872   -5.1368 H         1 UNK         0.0624 
@<TRIPOS>BOND
     1    1    2 1    
     2    1   72 1    
     3    1   73 1    
     4    1   74 1    
     5    2    3 2    
     6    2    4 am   BACKBONE|DICT|INTERRES
     7    4    5 1    
     8    4   75 1    
     9    5    6 1    
    10    5   35 1    
    11    5   76 1    
    12    6    7 1    
    13    6   77 1    
    14    6   78 1    
    15    7    8 1    
    16    8    9 1    
    17    8   79 1    
    18    8   80 1    
    19    9   10 ar   
    20    9   14 ar   
    21   10   11 ar   
    22   10   81 1    
    23   11   12 ar   
    24   11   71 1    
    25   12   13 ar   
    26   12   82 1    
    27   13   14 ar   
    28   13   15 1    
    29   14   83 1    
    30   15   16 1    
    31   15   84 1    
    32   15   85 1    
    33   16   17 1    
    34   17   18 1    
    35   17   86 1    
    36   17   87 1    
    37   18   19 1    
    38   18   37 1    
    39   18   88 1    
    40   19   20 am   BACKBONE|DICT|INTERRES
    41   19   89 1    
    42   20   21 2    
    43   20   22 1    
    44   22   23 1    
    45   22   24 1    
    46   22   90 1    
    47   23   91 1    
    48   23   92 1    
    49   23   93 1    
    50   24   25 am   BACKBONE|DICT|INTERRES
    51   24   94 1    
    52   25   26 2    
    53   25   27 1    
    54   27   28 1    
    55   27   29 1    
    56   27   95 1    
    57   28   96 1    
    58   28   97 1    
    59   28   98 1    
    60   29   30 am   BACKBONE|DICT|INTERRES
    61   29   99 1    
    62   30   31 2    
    63   30   32 1    
    64   32   33 1    
    65   32   34 1    
    66   32  100 1    
    67   33  101 1    
    68   33  102 1    
    69   33  103 1    
    70   34   35 am   BACKBONE|DICT|INTERRES
    71   34  104 1    
    72   35   36 2    
    73   37   38 2    
    74   37   39 am   BACKBONE|DICT|INTERRES
    75   39   40 1    
    76   39  105 1    
    77   40   41 1    
    78   40   42 1    
    79   40  106 1    
    80   41  107 1    
    81   41  108 1    
    82   41  109 1    
    83   42   43 2    
    84   42   44 am   BACKBONE|DICT|INTERRES
    85   44   45 1    
    86   44  110 1    
    87   45   46 1    
    88   45   47 1    
    89   45  111 1    
    90   46  112 1    
    91   46  113 1    
    92   46  114 1    
    93   47   48 2    
    94   47   49 am   BACKBONE|DICT|INTERRES
    95   49   50 1    
    96   49  115 1    
    97   50   51 1    
    98   50   52 1    
    99   50  116 1    
   100   51  117 1    
   101   51  118 1    
   102   51  119 1    
   103   52   53 2    
   104   52   54 am   BACKBONE|DICT|INTERRES
   105   54   55 1    
   106   54  120 1    
   107   55   56 1    
   108   55   57 1    
   109   55  121 1    
   110   56  122 1    
   111   56  123 1    
   112   56  124 1    
   113   57   58 2    
   114   57   59 am   BACKBONE|DICT|INTERRES
   115   59   60 1    
   116   59  125 1    
   117   60   61 1    
   118   60   62 1    
   119   60  126 1    
   120   61  127 1    
   121   61  128 1    
   122   61  129 1    
   123   62   63 2    
   124   62   64 am   BACKBONE|DICT|INTERRES
   125   64   65 1    
   126   64  130 1    
   127   65   66 1    
   128   65   69 1    
   129   65  131 1    
   130   66   67 am   BACKBONE|DICT|INTERRES
   131   66   68 2    
   132   67  132 1    
   133   67  133 1    
   134   69   70 1    
   135   69  134 1    
   136   69  135 1    
   137   70   71 1    
   138   71  136 1    
   139   71  137 1    
@<TRIPOS>SUBSTRUCTURE
     1 UNK         1 GROUP             0       ****    0 ROOT    
