@<TRIPOS>MOLECULE
3R137
137   139    1
SMALL
USER_CHARGES


@<TRIPOS>ATOM
      1 CA         27.5553   -0.9601    3.9205 C.3       0 UNK        -0.2020 
      2 C          27.3355   -0.8348    2.4202 C.2       0 UNK         0.4855 
      3 O          26.6992    0.1200    1.9722 O.2       0 UNK        -0.5197 
      4 N          27.8648   -1.7853    1.6404 N.am      1 UNK        -0.4892 
      5 CA         27.7167   -1.8511    0.1815 C.3       1 UNK         0.0835 
      6 C6         28.7418   -2.8169   -0.4628 C.3       12 UNK        -0.0855 
      7 S7         30.4738   -2.4069   -0.0551 S.3       12 UNK        -0.2931 
      8 C8         31.3511   -3.8564   -0.7268 C.3       12 UNK         0.0378 
      9 C9         31.4800   -3.7777   -2.2411 C.ar      12 UNK        -0.0802 
     10 C10        32.6186   -3.2121   -2.8236 C.ar      12 UNK        -0.0944 
     11 C11        32.7387   -3.1191   -4.2146 C.ar      12 UNK        -0.0787 
     12 C12        31.6921   -3.5846   -5.0196 C.ar      12 UNK        -0.0862 
     13 C13        30.5421   -4.1378   -4.4503 C.ar      12 UNK        -0.0733 
     14 C14        30.4574   -4.2613   -3.0609 C.ar      12 UNK        -0.0832 
     15 C15        29.3896   -4.5852   -5.3418 C.3       12 UNK         0.0240 
     16 S16        27.7861   -3.8733   -4.8397 S.3       12 UNK        -0.2522 
     17 C17        28.0742   -2.0743   -4.9884 C.3       12 UNK        -0.0967 
     18 CA         27.4487   -1.4653   -6.2670 C.3       5 UNK         0.0660 
     19 N          26.0302   -1.7957   -6.4196 N.am      5 UNK        -0.4015 
     20 C          25.3217   -1.6213   -7.5430 C.2       4 UNK         0.4946 
     21 O          25.7936   -1.1807   -8.5912 O.2       4 UNK        -0.5353 
     22 CA         23.8241   -1.9635   -7.4705 C.3       4 UNK         0.0277 
     23 CB         23.6033   -3.4717   -7.6681 C.3       4 UNK        -0.1981 
     24 N          23.2073   -1.5343   -6.2116 N.am      4 UNK        -0.4209 
     25 C          23.0667   -0.2532   -5.8409 C.2       3 UNK         0.4942 
     26 O          23.4003    0.7009   -6.5406 O.2       3 UNK        -0.5208 
     27 CA         22.5030    0.0117   -4.4353 C.3       3 UNK         0.0250 
     28 CB         20.9663    0.0155   -4.4619 C.3       3 UNK        -0.1990 
     29 N          22.9777   -0.9329   -3.4180 N.am      3 UNK        -0.4232 
     30 C          24.2620   -1.1170   -3.0837 C.2       2 UNK         0.4993 
     31 O          25.2094   -0.5459   -3.6332 O.2       2 UNK        -0.5286 
     32 CA         24.5378   -2.1410   -1.9801 C.3       2 UNK         0.0209 
     33 CB         24.4847   -3.5755   -2.5403 C.3       2 UNK        -0.1931 
     34 N          25.8562   -1.8656   -1.4157 N.am      2 UNK        -0.4546 
     35 C          26.2821   -2.2645   -0.2131 C.2       1 UNK         0.5154 
     36 O          25.6062   -2.9598    0.5516 O.2       1 UNK        -0.5181 
     37 C          27.6606    0.0600   -6.3121 C.2       5 UNK         0.5014 
     38 O          28.5779    0.5249   -6.9885 O.2       5 UNK        -0.5248 
     39 N          26.7831    0.8118   -5.6299 N.am      6 UNK        -0.4434 
     40 CA         26.7498    2.2760   -5.6452 C.3       6 UNK         0.0363 
     41 CB         25.7346    2.7790   -4.6072 C.3       6 UNK        -0.1936 
     42 C          26.4427    2.8573   -7.0371 C.2       6 UNK         0.5081 
     43 O          27.0556    3.8542   -7.4179 O.2       6 UNK        -0.5248 
     44 N          25.5232    2.2197   -7.7768 N.am      7 UNK        -0.4718 
     45 CA         25.1857    2.5623   -9.1610 C.3       7 UNK         0.0273 
     46 CB         23.9081    1.8217   -9.5870 C.3       7 UNK        -0.1935 
     47 C          26.3337    2.2767  -10.1433 C.2       7 UNK         0.5018 
     48 O          26.5630    3.0846  -11.0444 O.2       7 UNK        -0.5186 
     49 N          27.0397    1.1517   -9.9496 N.am      8 UNK        -0.4240 
     50 CA         28.2482    0.7966  -10.7001 C.3       8 UNK         0.0235 
     51 CB         28.6446   -0.6582  -10.4002 C.3       8 UNK        -0.2000 
     52 C          29.4184    1.7518  -10.4107 C.2       8 UNK         0.4941 
     53 O          30.1146    2.1527  -11.3452 O.2       8 UNK        -0.5273 
     54 N          29.5974    2.1069   -9.1293 N.am      9 UNK        -0.4262 
     55 CA         30.5659    3.0468   -8.5490 C.3       9 UNK         0.0264 
     56 CB         30.3779    4.4717   -9.1053 C.3       9 UNK        -0.1955 
     57 C          32.0311    2.5898   -8.6497 C.2       9 UNK         0.5031 
     58 O          32.7266    2.5714   -7.6332 O.2       9 UNK        -0.5390 
     59 N          32.4739    2.2242   -9.8568 N.am      10 UNK        -0.4204 
     60 CA         33.7619    1.5891  -10.1171 C.3       10 UNK         0.0237 
     61 CB         34.1619    1.8316  -11.5816 C.3       10 UNK        -0.1985 
     62 C          33.6511    0.0875   -9.8210 C.2       10 UNK         0.4970 
     63 O          32.6991   -0.5504  -10.2777 O.2       10 UNK        -0.4914 
     64 N          34.6260   -0.4466   -9.0834 N.am      11 UNK        -0.4285 
     65 CA         34.7013   -1.8498   -8.6645 C.3       11 UNK         0.1007 
     66 C          36.1404   -2.2260   -8.2207 C.2       11 UNK         0.5703 
     67 N          36.4102   -3.5062   -8.0028 N.am      11 UNK        -0.7361 
     68 O          37.0160   -1.3732   -8.0748 O.2       11 UNK        -0.4986 
     69 C69        33.6116   -2.2250   -7.6177 C.3       12 UNK        -0.0947 
     70 S70        33.6848   -1.2435   -6.0748 S.3       12 UNK        -0.2240 
     71 C71        34.0098   -2.5325   -4.8261 C.3       12 UNK         0.0194 
     72 H72        26.5975   -1.0364    4.4346 H         1 UNK         0.0906 
     73 H73        28.0762   -0.0807    4.2984 H         1 UNK         0.0906 
     74 H74        28.1472   -1.8394    4.1743 H         1 UNK         0.0906 
     75 H75        28.3725   -2.5512    2.0593 H         1 UNK         0.3140 
     76 H76        27.8963   -0.8487   -0.2146 H         1 UNK         0.1085 
     77 H77        28.6372   -2.7912   -1.5488 H         1 UNK         0.0836 
     78 H78        28.5442   -3.8461   -0.1554 H         1 UNK         0.0836 
     79 H79        32.3418   -3.9072   -0.2726 H         1 UNK         0.0731 
     80 H80        30.8377   -4.7735   -0.4335 H         1 UNK         0.0731 
     81 H81        33.4137   -2.8447   -2.1890 H         1 UNK         0.1312 
     82 H82        31.7619   -3.5069   -6.0939 H         1 UNK         0.1406 
     83 H83        29.5755   -4.7037   -2.6183 H         1 UNK         0.1631 
     84 H84        29.3187   -5.6730   -5.3075 H         1 UNK         0.0717 
     85 H85        29.5752   -4.3194   -6.3838 H         1 UNK         0.0717 
     86 H86        27.6597   -1.6041   -4.0953 H         1 UNK         0.0934 
     87 H87        29.1454   -1.8673   -4.9596 H         1 UNK         0.0934 
     88 H88        27.9744   -1.8898   -7.1253 H         1 UNK         0.0739 
     89 H89        25.5624   -2.1347   -5.5927 H         1 UNK         0.3093 
     90 H90        23.3252   -1.4354   -8.2861 H         1 UNK         0.0818 
     91 H91        24.0405   -3.8082   -8.6093 H         1 UNK         0.0819 
     92 H92        24.0592   -4.0585   -6.8695 H         1 UNK         0.0819 
     93 H93        22.5414   -3.7163   -7.7012 H         1 UNK         0.0819 
     94 H94        22.8953   -2.2563   -5.5788 H         1 UNK         0.3041 
     95 H95        22.8380    1.0065   -4.1346 H         1 UNK         0.0784 
     96 H96        20.5912    0.7260   -5.2002 H         1 UNK         0.0793 
     97 H97        20.5618   -0.9645   -4.7182 H         1 UNK         0.0793 
     98 H98        20.5529    0.3081   -3.4964 H         1 UNK         0.0793 
     99 H99        22.2671   -1.4534   -2.9232 H         1 UNK         0.3024 
    100 H100       23.7840   -2.0198   -1.1984 H         1 UNK         0.1171 
    101 H101       23.5051   -3.7989   -2.9643 H         1 UNK         0.0786 
    102 H102       25.2238   -3.7282   -3.3264 H         1 UNK         0.0786 
    103 H103       24.6712   -4.3153   -1.7618 H         1 UNK         0.0786 
    104 H104       26.4280   -1.2612   -1.9932 H         1 UNK         0.2977 
    105 H105       26.0877    0.3445   -5.0517 H         1 UNK         0.3127 
    106 H106       27.7405    2.6296   -5.3516 H         1 UNK         0.0770 
    107 H107       24.7203    2.4617   -4.8492 H         1 UNK         0.0814 
    108 H108       25.7329    3.8688   -4.5610 H         1 UNK         0.0814 
    109 H109       25.9711    2.4109   -3.6087 H         1 UNK         0.0814 
    110 H110       24.9927    1.4633   -7.3526 H         1 UNK         0.2983 
    111 H111       24.9829    3.6349   -9.1976 H         1 UNK         0.0947 
    112 H112       23.6325    2.0750  -10.6115 H         1 UNK         0.0806 
    113 H113       23.0651    2.0882   -8.9494 H         1 UNK         0.0806 
    114 H114       24.0334    0.7397   -9.5400 H         1 UNK         0.0806 
    115 H115       26.7322    0.4998   -9.2339 H         1 UNK         0.3000 
    116 H116       28.0148    0.8720  -11.7643 H         1 UNK         0.0850 
    117 H117       29.5338   -0.9440  -10.9642 H         1 UNK         0.0810 
    118 H118       27.8480   -1.3504  -10.6736 H         1 UNK         0.0810 
    119 H119       28.8687   -0.8087   -9.3440 H         1 UNK         0.0810 
    120 H120       29.0257    1.6266   -8.4361 H         1 UNK         0.3040 
    121 H121       30.3227    3.0812   -7.4856 H         1 UNK         0.0766 
    122 H122       30.5994    4.5303  -10.1712 H         1 UNK         0.0812 
    123 H123       31.0375    5.1766   -8.5978 H         1 UNK         0.0812 
    124 H124       29.3552    4.8191   -8.9567 H         1 UNK         0.0812 
    125 H125       31.7872    2.2076  -10.6095 H         1 UNK         0.3205 
    126 H126       34.5210    2.0360   -9.4712 H         1 UNK         0.0754 
    127 H127       35.1266    1.3736  -11.8037 H         1 UNK         0.0769 
    128 H128       34.2509    2.8968  -11.7963 H         1 UNK         0.0769 
    129 H129       33.4321    1.4104  -12.2748 H         1 UNK         0.0769 
    130 H130       35.4001    0.1217   -8.7653 H         1 UNK         0.2981 
    131 H131       34.5180   -2.4456   -9.5608 H         1 UNK         0.0541 
    132 H132       37.3406   -3.7665   -7.7153 H         1 UNK         0.3459 
    133 H133       35.7080   -4.2181   -8.1283 H         1 UNK         0.3459 
    134 H134       33.6678   -3.2896   -7.3888 H         1 UNK         0.0612 
    135 H135       32.6202   -2.0806   -8.0486 H         1 UNK         0.0612 
    136 H136       34.6122   -3.3333   -5.2564 H         1 UNK         0.0624 
    137 H137       34.6250   -2.0809   -4.0465 H         1 UNK         0.0624 
@<TRIPOS>BOND
     1    1    2 1    
     2    1   72 1    
     3    1   73 1    
     4    1   74 1    
     5    2    3 2    
     6    2    4 am   BACKBONE|DICT|INTERRES
     7    4    5 1    
     8    4   75 1    
     9    5    6 1    
    10    5   35 1    
    11    5   76 1    
    12    6    7 1    
    13    6   77 1    
    14    6   78 1    
    15    7    8 1    
    16    8    9 1    
    17    8   79 1    
    18    8   80 1    
    19    9   10 ar   
    20    9   14 ar   
    21   10   11 ar   
    22   10   81 1    
    23   11   12 ar   
    24   11   71 1    
    25   12   13 ar   
    26   12   82 1    
    27   13   14 ar   
    28   13   15 1    
    29   14   83 1    
    30   15   16 1    
    31   15   84 1    
    32   15   85 1    
    33   16   17 1    
    34   17   18 1    
    35   17   86 1    
    36   17   87 1    
    37   18   19 1    
    38   18   37 1    
    39   18   88 1    
    40   19   20 am   BACKBONE|DICT|INTERRES
    41   19   89 1    
    42   20   21 2    
    43   20   22 1    
    44   22   23 1    
    45   22   24 1    
    46   22   90 1    
    47   23   91 1    
    48   23   92 1    
    49   23   93 1    
    50   24   25 am   BACKBONE|DICT|INTERRES
    51   24   94 1    
    52   25   26 2    
    53   25   27 1    
    54   27   28 1    
    55   27   29 1    
    56   27   95 1    
    57   28   96 1    
    58   28   97 1    
    59   28   98 1    
    60   29   30 am   BACKBONE|DICT|INTERRES
    61   29   99 1    
    62   30   31 2    
    63   30   32 1    
    64   32   33 1    
    65   32   34 1    
    66   32  100 1    
    67   33  101 1    
    68   33  102 1    
    69   33  103 1    
    70   34   35 am   BACKBONE|DICT|INTERRES
    71   34  104 1    
    72   35   36 2    
    73   37   38 2    
    74   37   39 am   BACKBONE|DICT|INTERRES
    75   39   40 1    
    76   39  105 1    
    77   40   41 1    
    78   40   42 1    
    79   40  106 1    
    80   41  107 1    
    81   41  108 1    
    82   41  109 1    
    83   42   43 2    
    84   42   44 am   BACKBONE|DICT|INTERRES
    85   44   45 1    
    86   44  110 1    
    87   45   46 1    
    88   45   47 1    
    89   45  111 1    
    90   46  112 1    
    91   46  113 1    
    92   46  114 1    
    93   47   48 2    
    94   47   49 am   BACKBONE|DICT|INTERRES
    95   49   50 1    
    96   49  115 1    
    97   50   51 1    
    98   50   52 1    
    99   50  116 1    
   100   51  117 1    
   101   51  118 1    
   102   51  119 1    
   103   52   53 2    
   104   52   54 am   BACKBONE|DICT|INTERRES
   105   54   55 1    
   106   54  120 1    
   107   55   56 1    
   108   55   57 1    
   109   55  121 1    
   110   56  122 1    
   111   56  123 1    
   112   56  124 1    
   113   57   58 2    
   114   57   59 am   BACKBONE|DICT|INTERRES
   115   59   60 1    
   116   59  125 1    
   117   60   61 1    
   118   60   62 1    
   119   60  126 1    
   120   61  127 1    
   121   61  128 1    
   122   61  129 1    
   123   62   63 2    
   124   62   64 am   BACKBONE|DICT|INTERRES
   125   64   65 1    
   126   64  130 1    
   127   65   66 1    
   128   65   69 1    
   129   65  131 1    
   130   66   67 am   BACKBONE|DICT|INTERRES
   131   66   68 2    
   132   67  132 1    
   133   67  133 1    
   134   69   70 1    
   135   69  134 1    
   136   69  135 1    
   137   70   71 1    
   138   71  136 1    
   139   71  137 1    
@<TRIPOS>SUBSTRUCTURE
     1 UNK         1 GROUP             0       ****    0 ROOT    
