@<TRIPOS>MOLECULE
3R137
137   139    1
SMALL
USER_CHARGES


@<TRIPOS>ATOM
      1 CA         29.8549   -0.2373    3.2098 C.3       0 UNK        -0.2020 
      2 C          29.3709   -0.1742    1.7687 C.2       0 UNK         0.4855 
      3 O          28.5872    0.7112    1.4238 O.2       0 UNK        -0.5197 
      4 N          29.8386   -1.0997    0.9229 N.am      1 UNK        -0.4892 
      5 CA         29.4269   -1.2445   -0.4768 C.3       1 UNK         0.0835 
      6 C6         30.4779   -2.0215   -1.3107 C.3       12 UNK        -0.0855 
      7 S7         31.0103   -3.6176   -0.5894 S.3       12 UNK        -0.2931 
      8 C8         30.0663   -4.8297   -1.5813 C.3       12 UNK         0.0378 
      9 C9         30.3365   -4.8118   -3.0879 C.ar      12 UNK        -0.0802 
     10 C10        31.5226   -4.3025   -3.6368 C.ar      12 UNK        -0.0944 
     11 C11        31.7133   -4.2708   -5.0212 C.ar      12 UNK        -0.0787 
     12 C12        30.7264   -4.7903   -5.8618 C.ar      12 UNK        -0.0862 
     13 C13        29.5382   -5.2979   -5.3328 C.ar      12 UNK        -0.0733 
     14 C14        29.3548   -5.3168   -3.9473 C.ar      12 UNK        -0.0832 
     15 C15        28.4362   -5.7791   -6.2664 C.3       12 UNK         0.0240 
     16 S16        26.9719   -4.6942   -6.2112 S.3       12 UNK        -0.2522 
     17 C17        27.6992   -3.0355   -6.4630 C.3       12 UNK        -0.0967 
     18 CA         26.8327   -2.1379   -7.3751 C.3       5 UNK         0.0660 
     19 N          25.4599   -1.9962   -6.8930 N.am      5 UNK        -0.4015 
     20 C          24.4163   -1.6579   -7.6608 C.2       4 UNK         0.4946 
     21 O          24.4852   -1.4757   -8.8767 O.2       4 UNK        -0.5353 
     22 CA         23.0645   -1.4786   -6.9486 C.3       4 UNK         0.0277 
     23 CB         22.2924   -2.8075   -6.9177 C.3       4 UNK        -0.1981 
     24 N          23.1959   -0.9579   -5.5846 N.am      4 UNK        -0.4209 
     25 C          23.6505    0.2671   -5.2855 C.2       3 UNK         0.4942 
     26 O          23.9957    1.0963   -6.1270 O.2       3 UNK        -0.5208 
     27 CA         23.7805    0.6081   -3.7925 C.3       3 UNK         0.0250 
     28 CB         22.4255    1.0548   -3.2201 C.3       3 UNK        -0.1990 
     29 N          24.3318   -0.4770   -2.9699 N.am      3 UNK        -0.4232 
     30 C          25.5383   -1.0321   -3.1481 C.2       2 UNK         0.4993 
     31 O          26.2783   -0.7846   -4.1035 O.2       2 UNK        -0.5286 
     32 CA         26.0214   -2.0215   -2.0867 C.3       2 UNK         0.0209 
     33 CB         25.9641   -3.4700   -2.6010 C.3       2 UNK        -0.1931 
     34 N          27.3970   -1.6526   -1.7739 N.am      2 UNK        -0.4546 
     35 C          28.0118   -1.8509   -0.6041 C.2       1 UNK         0.5154 
     36 O          27.5086   -2.4778    0.3331 O.2       1 UNK        -0.5181 
     37 C          27.4715   -0.7504   -7.5548 C.2       5 UNK         0.5014 
     38 O          28.0237   -0.4778   -8.6199 O.2       5 UNK        -0.5248 
     39 N          27.3358    0.1166   -6.5379 N.am      6 UNK        -0.4434 
     40 CA         27.8371    1.4954   -6.5170 C.3       6 UNK         0.0363 
     41 CB         27.5219    2.1349   -5.1563 C.3       6 UNK        -0.1936 
     42 C          27.2982    2.3700   -7.6621 C.2       6 UNK         0.5081 
     43 O          28.0258    3.2272   -8.1629 O.2       6 UNK        -0.5248 
     44 N          26.0490    2.1170   -8.0771 N.am      7 UNK        -0.4718 
     45 CA         25.4148    2.7296   -9.2457 C.3       7 UNK         0.0273 
     46 CB         23.9201    2.3712   -9.2523 C.3       7 UNK        -0.1935 
     47 C          26.0662    2.3358  -10.5858 C.2       7 UNK         0.5018 
     48 O          25.9799    3.1155  -11.5356 O.2       7 UNK        -0.5186 
     49 N          26.6950    1.1529  -10.6505 N.am      8 UNK        -0.4240 
     50 CA         27.4366    0.6785  -11.8189 C.3       8 UNK         0.0235 
     51 CB         27.3623   -0.8555  -11.9085 C.3       8 UNK        -0.2000 
     52 C          28.8920    1.1667  -11.7796 C.2       8 UNK         0.4941 
     53 O          29.3694    1.7006  -12.7821 O.2       8 UNK        -0.5273 
     54 N          29.5651    1.0009  -10.6330 N.am      9 UNK        -0.4262 
     55 CA         30.9299    1.4675  -10.3957 C.3       9 UNK         0.0264 
     56 CB         31.9492    0.5001  -11.0270 C.3       9 UNK        -0.1955 
     57 C          31.1643    1.5858   -8.8884 C.2       9 UNK         0.5031 
     58 O          30.8384    0.6555   -8.1502 O.2       9 UNK        -0.5390 
     59 N          31.7693    2.6971   -8.4518 N.am      10 UNK        -0.4204 
     60 CA         32.0872    2.9882   -7.0496 C.3       10 UNK         0.0237 
     61 CB         32.2212    4.5128   -6.8751 C.3       10 UNK        -0.1985 
     62 C          33.3323    2.2194   -6.5590 C.2       10 UNK         0.4970 
     63 O          34.3203    2.8335   -6.1524 O.2       10 UNK        -0.4914 
     64 N          33.2648    0.8860   -6.6222 N.am      11 UNK        -0.4285 
     65 CA         34.3084   -0.0525   -6.1808 C.3       11 UNK         0.1007 
     66 C          34.4558   -0.2037   -4.6373 C.2       11 UNK         0.5703 
     67 N          33.5520    0.3302   -3.8236 N.am      11 UNK        -0.7361 
     68 O          35.4189   -0.8073   -4.1706 O.2       11 UNK        -0.4986 
     69 C69        34.1680   -1.4232   -6.8958 C.3       12 UNK        -0.0947 
     70 S70        32.5369   -2.2011   -6.6425 S.3       12 UNK        -0.2240 
     71 C71        32.9652   -3.6413   -5.6147 C.3       12 UNK         0.0194 
     72 H72        29.0098   -0.3780    3.8831 H         1 UNK         0.0906 
     73 H73        30.5554   -1.0569    3.3693 H         1 UNK         0.0906 
     74 H74        30.3546    0.6928    3.4793 H         1 UNK         0.0906 
     75 H75        30.4518   -1.8290    1.2606 H         1 UNK         0.3140 
     76 H76        29.3656   -0.2378   -0.8978 H         1 UNK         0.1085 
     77 H77        31.3737   -1.4056   -1.4046 H         1 UNK         0.0836 
     78 H78        30.1312   -2.1648   -2.3354 H         1 UNK         0.0836 
     79 H79        30.2900   -5.8287   -1.2050 H         1 UNK         0.0731 
     80 H80        29.0039   -4.6627   -1.3960 H         1 UNK         0.0731 
     81 H81        32.2936   -3.9054   -2.9921 H         1 UNK         0.1312 
     82 H82        30.8700   -4.7573   -6.9334 H         1 UNK         0.1406 
     83 H83        28.4292   -5.7032   -3.5417 H         1 UNK         0.1631 
     84 H84        28.1405   -6.7914   -5.9877 H         1 UNK         0.0717 
     85 H85        28.7943   -5.8355   -7.2955 H         1 UNK         0.0717 
     86 H86        27.8494   -2.5789   -5.4827 H         1 UNK         0.0934 
     87 H87        28.6922   -3.1398   -6.9035 H         1 UNK         0.0934 
     88 H88        26.7983   -2.6098   -8.3600 H         1 UNK         0.0739 
     89 H89        25.3247   -2.0938   -5.8974 H         1 UNK         0.3093 
     90 H90        22.4832   -0.7573   -7.5274 H         1 UNK         0.0818 
     91 H91        21.2980   -2.6798   -6.4893 H         1 UNK         0.0819 
     92 H92        22.1601   -3.2039   -7.9255 H         1 UNK         0.0819 
     93 H93        22.8156   -3.5673   -6.3356 H         1 UNK         0.0819 
     94 H94        22.9331   -1.5723   -4.8276 H         1 UNK         0.3041 
     95 H95        24.4700    1.4511   -3.7154 H         1 UNK         0.0784 
     96 H96        22.0039    1.8716   -3.8081 H         1 UNK         0.0793 
     97 H97        21.6966    0.2433   -3.2204 H         1 UNK         0.0793 
     98 H98        22.5263    1.4158   -2.1964 H         1 UNK         0.0793 
     99 H99        23.7853   -0.7487   -2.1649 H         1 UNK         0.3024 
    100 H100       25.4020   -1.9246   -1.1918 H         1 UNK         0.1171 
    101 H101       24.9517   -3.7429   -2.9010 H         1 UNK         0.0786 
    102 H102       26.2765   -4.1753   -1.8309 H         1 UNK         0.0786 
    103 H103       26.6139   -3.6131   -3.4641 H         1 UNK         0.0786 
    104 H104       27.8510   -1.1191   -2.5050 H         1 UNK         0.2977 
    105 H105       26.8738   -0.2025   -5.6864 H         1 UNK         0.3127 
    106 H106       28.9210    1.4471   -6.6222 H         1 UNK         0.0770 
    107 H107       26.4474    2.1949   -4.9819 H         1 UNK         0.0814 
    108 H108       27.9202    3.1488   -5.0999 H         1 UNK         0.0814 
    109 H109       27.9635    1.5663   -4.3378 H         1 UNK         0.0814 
    110 H110       25.4888    1.4574   -7.5467 H         1 UNK         0.2983 
    111 H111       25.5079    3.8131   -9.1457 H         1 UNK         0.0947 
    112 H112       23.4117    2.8233  -10.1050 H         1 UNK         0.0806 
    113 H113       23.4223    2.7304   -8.3513 H         1 UNK         0.0806 
    114 H114       23.7656    1.2929   -9.3122 H         1 UNK         0.0806 
    115 H115       26.7801    0.5951   -9.8074 H         1 UNK         0.3000 
    116 H116       26.9735    1.0799  -12.7232 H         1 UNK         0.0850 
    117 H117       27.8545   -1.2137  -12.8135 H         1 UNK         0.0810 
    118 H118       26.3285   -1.1998  -11.9428 H         1 UNK         0.0810 
    119 H119       27.8474   -1.3432  -11.0632 H         1 UNK         0.0810 
    120 H120       29.1143    0.5445   -9.8397 H         1 UNK         0.3040 
    121 H121       31.0461    2.4554  -10.8467 H         1 UNK         0.0766 
    122 H122       31.8309    0.4430  -12.1090 H         1 UNK         0.0812 
    123 H123       31.8443   -0.5086  -10.6247 H         1 UNK         0.0812 
    124 H124       32.9715    0.8254  -10.8302 H         1 UNK         0.0812 
    125 H125       32.0485    3.3947   -9.1268 H         1 UNK         0.3205 
    126 H126       31.2483    2.6626   -6.4303 H         1 UNK         0.0754 
    127 H127       32.4185    4.7718   -5.8338 H         1 UNK         0.0769 
    128 H128       31.3038    5.0261   -7.1647 H         1 UNK         0.0769 
    129 H129       33.0376    4.9194   -7.4734 H         1 UNK         0.0769 
    130 H130       32.4155    0.4688   -6.9944 H         1 UNK         0.2981 
    131 H131       35.2605    0.3676   -6.5101 H         1 UNK         0.0541 
    132 H132       32.7571    0.8215   -4.1971 H         1 UNK         0.3459 
    133 H133       33.6677    0.2329   -2.8278 H         1 UNK         0.3459 
    134 H134       34.9624   -2.1074   -6.5923 H         1 UNK         0.0612 
    135 H135       34.2985   -1.2840   -7.9699 H         1 UNK         0.0612 
    136 H136       33.4956   -4.3767   -6.2210 H         1 UNK         0.0624 
    137 H137       33.6495   -3.3280   -4.8245 H         1 UNK         0.0624 
@<TRIPOS>BOND
     1    1    2 1    
     2    1   72 1    
     3    1   73 1    
     4    1   74 1    
     5    2    3 2    
     6    2    4 am   BACKBONE|DICT|INTERRES
     7    4    5 1    
     8    4   75 1    
     9    5    6 1    
    10    5   35 1    
    11    5   76 1    
    12    6    7 1    
    13    6   77 1    
    14    6   78 1    
    15    7    8 1    
    16    8    9 1    
    17    8   79 1    
    18    8   80 1    
    19    9   10 ar   
    20    9   14 ar   
    21   10   11 ar   
    22   10   81 1    
    23   11   12 ar   
    24   11   71 1    
    25   12   13 ar   
    26   12   82 1    
    27   13   14 ar   
    28   13   15 1    
    29   14   83 1    
    30   15   16 1    
    31   15   84 1    
    32   15   85 1    
    33   16   17 1    
    34   17   18 1    
    35   17   86 1    
    36   17   87 1    
    37   18   19 1    
    38   18   37 1    
    39   18   88 1    
    40   19   20 am   BACKBONE|DICT|INTERRES
    41   19   89 1    
    42   20   21 2    
    43   20   22 1    
    44   22   23 1    
    45   22   24 1    
    46   22   90 1    
    47   23   91 1    
    48   23   92 1    
    49   23   93 1    
    50   24   25 am   BACKBONE|DICT|INTERRES
    51   24   94 1    
    52   25   26 2    
    53   25   27 1    
    54   27   28 1    
    55   27   29 1    
    56   27   95 1    
    57   28   96 1    
    58   28   97 1    
    59   28   98 1    
    60   29   30 am   BACKBONE|DICT|INTERRES
    61   29   99 1    
    62   30   31 2    
    63   30   32 1    
    64   32   33 1    
    65   32   34 1    
    66   32  100 1    
    67   33  101 1    
    68   33  102 1    
    69   33  103 1    
    70   34   35 am   BACKBONE|DICT|INTERRES
    71   34  104 1    
    72   35   36 2    
    73   37   38 2    
    74   37   39 am   BACKBONE|DICT|INTERRES
    75   39   40 1    
    76   39  105 1    
    77   40   41 1    
    78   40   42 1    
    79   40  106 1    
    80   41  107 1    
    81   41  108 1    
    82   41  109 1    
    83   42   43 2    
    84   42   44 am   BACKBONE|DICT|INTERRES
    85   44   45 1    
    86   44  110 1    
    87   45   46 1    
    88   45   47 1    
    89   45  111 1    
    90   46  112 1    
    91   46  113 1    
    92   46  114 1    
    93   47   48 2    
    94   47   49 am   BACKBONE|DICT|INTERRES
    95   49   50 1    
    96   49  115 1    
    97   50   51 1    
    98   50   52 1    
    99   50  116 1    
   100   51  117 1    
   101   51  118 1    
   102   51  119 1    
   103   52   53 2    
   104   52   54 am   BACKBONE|DICT|INTERRES
   105   54   55 1    
   106   54  120 1    
   107   55   56 1    
   108   55   57 1    
   109   55  121 1    
   110   56  122 1    
   111   56  123 1    
   112   56  124 1    
   113   57   58 2    
   114   57   59 am   BACKBONE|DICT|INTERRES
   115   59   60 1    
   116   59  125 1    
   117   60   61 1    
   118   60   62 1    
   119   60  126 1    
   120   61  127 1    
   121   61  128 1    
   122   61  129 1    
   123   62   63 2    
   124   62   64 am   BACKBONE|DICT|INTERRES
   125   64   65 1    
   126   64  130 1    
   127   65   66 1    
   128   65   69 1    
   129   65  131 1    
   130   66   67 am   BACKBONE|DICT|INTERRES
   131   66   68 2    
   132   67  132 1    
   133   67  133 1    
   134   69   70 1    
   135   69  134 1    
   136   69  135 1    
   137   70   71 1    
   138   71  136 1    
   139   71  137 1    
@<TRIPOS>SUBSTRUCTURE
     1 UNK         1 GROUP             0       ****    0 ROOT    
