@<TRIPOS>MOLECULE
3R137
137   139    1
SMALL
USER_CHARGES


@<TRIPOS>ATOM
      1 CA         26.3563   -6.5688   -5.5175 C.3       0 UNK        -0.2020 
      2 C          25.7499   -5.5852   -4.5292 C.2       0 UNK         0.4855 
      3 O          24.6644   -5.0566   -4.7717 O.2       0 UNK        -0.5197 
      4 N          26.4537   -5.3354   -3.4185 N.am      1 UNK        -0.4892 
      5 CA         26.0844   -4.4229   -2.3302 C.3       1 UNK         0.0835 
      6 C6         27.0727   -4.5233   -1.1335 C.3       12 UNK        -0.0855 
      7 S7         28.8427   -4.5357   -1.6040 S.3       12 UNK        -0.2931 
      8 C8         29.4367   -2.9705   -0.8725 C.3       12 UNK         0.0378 
      9 C9         30.7444   -2.4278   -1.4570 C.ar      12 UNK        -0.0802 
     10 C10        31.6051   -3.1983   -2.2534 C.ar      12 UNK        -0.0944 
     11 C11        32.7557   -2.6372   -2.8162 C.ar      12 UNK        -0.0787 
     12 C12        33.0647   -1.2999   -2.5585 C.ar      12 UNK        -0.0862 
     13 C13        32.2307   -0.5241   -1.7489 C.ar      12 UNK        -0.0733 
     14 C14        31.0782   -1.0938   -1.2001 C.ar      12 UNK        -0.0832 
     15 C15        32.5866    0.9266   -1.4651 C.3       12 UNK         0.0240 
     16 S16        31.9925    2.0336   -2.7810 S.3       12 UNK        -0.2522 
     17 C17        30.2660    2.3471   -2.2763 C.3       12 UNK        -0.0967 
     18 CA         29.2770    2.2302   -3.4650 C.3       5 UNK         0.0660 
     19 N          29.2508    0.8711   -4.0270 N.am      5 UNK        -0.4015 
     20 C          28.8074    0.5300   -5.2446 C.2       4 UNK         0.4946 
     21 O          28.2627    1.3284   -6.0077 O.2       4 UNK        -0.5353 
     22 CA         29.0022   -0.9202   -5.7119 C.3       4 UNK         0.0277 
     23 CB         29.8250   -1.7947   -4.7543 C.3       4 UNK        -0.1981 
     24 N          27.7057   -1.5457   -5.9397 N.am      4 UNK        -0.4209 
     25 C          27.0054   -1.4653   -7.0801 C.2       3 UNK         0.4942 
     26 O          27.4229   -0.9246   -8.1052 O.2       3 UNK        -0.5208 
     27 CA         25.6028   -2.1022   -7.0916 C.3       3 UNK         0.0250 
     28 CB         25.6784   -3.5150   -7.6886 C.3       3 UNK        -0.1990 
     29 N          24.9761   -2.1510   -5.7660 N.am      3 UNK        -0.4232 
     30 C          24.6813   -1.0638   -5.0342 C.2       2 UNK         0.4993 
     31 O          24.8015    0.0865   -5.4536 O.2       2 UNK        -0.5286 
     32 CA         24.2246   -1.2769   -3.5786 C.3       2 UNK         0.0209 
     33 CB         22.7007   -1.1144   -3.4645 C.3       2 UNK        -0.1931 
     34 N          24.6225   -2.5677   -3.0044 N.am      2 UNK        -0.4546 
     35 C          25.8890   -2.9781   -2.8404 C.2       1 UNK         0.5154 
     36 O          26.8639   -2.2871   -3.1380 O.2       1 UNK        -0.5181 
     37 C          27.8768    2.8096   -3.1342 C.2       5 UNK         0.5014 
     38 O          27.6435    3.2725   -2.0157 O.2       5 UNK        -0.5248 
     39 N          26.9902    2.8226   -4.1320 N.am      6 UNK        -0.4434 
     40 CA         25.7517    3.5895   -4.1923 C.3       6 UNK         0.0363 
     41 CB         24.6106    2.9161   -3.4078 C.3       6 UNK        -0.1936 
     42 C          25.4033    3.8359   -5.6658 C.2       6 UNK         0.5081 
     43 O          25.3192    4.9938   -6.0756 O.2       6 UNK        -0.5248 
     44 N          25.2471    2.7577   -6.4491 N.am      7 UNK        -0.4718 
     45 CA         24.9707    2.8278   -7.8899 C.3       7 UNK         0.0273 
     46 CB         24.3177    1.5166   -8.3502 C.3       7 UNK        -0.1935 
     47 C          26.2179    3.1150   -8.7455 C.2       7 UNK         0.5018 
     48 O          26.0737    3.6795   -9.8306 O.2       7 UNK        -0.5186 
     49 N          27.4021    2.7139   -8.2581 N.am      8 UNK        -0.4240 
     50 CA         28.7215    2.8271   -8.8920 C.3       8 UNK         0.0235 
     51 CB         29.1322    4.3062   -9.0576 C.3       8 UNK        -0.2000 
     52 C          28.8519    2.0087  -10.1921 C.2       8 UNK         0.4941 
     53 O          29.5541    2.4331  -11.1124 O.2       8 UNK        -0.5273 
     54 N          28.1846    0.8479  -10.2468 N.am      9 UNK        -0.4262 
     55 CA         28.2758   -0.1053  -11.3535 C.3       9 UNK         0.0264 
     56 CB         26.9300   -0.8312  -11.5224 C.3       9 UNK        -0.1955 
     57 C          29.4164   -1.1080  -11.1202 C.2       9 UNK         0.5031 
     58 O          30.1758   -1.3882  -12.0491 O.2       9 UNK        -0.5390 
     59 N          29.5163   -1.6212   -9.8883 N.am      10 UNK        -0.4204 
     60 CA         30.5691   -2.5269   -9.4293 C.3       10 UNK         0.0237 
     61 CB         29.9280   -3.6065   -8.5377 C.3       10 UNK        -0.1985 
     62 C          31.6518   -1.7561   -8.6556 C.2       10 UNK         0.4970 
     63 O          31.4408   -0.5998   -8.2808 O.2       10 UNK        -0.4914 
     64 N          32.7772   -2.4371   -8.4027 N.am      11 UNK        -0.4285 
     65 CA         33.9172   -1.9648   -7.5957 C.3       11 UNK         0.1007 
     66 C          34.5857   -0.6757   -8.1694 C.2       11 UNK         0.5703 
     67 N          35.2108    0.1573   -7.3467 N.am      11 UNK        -0.7361 
     68 O          34.5995   -0.4542   -9.3793 O.2       11 UNK        -0.4986 
     69 C69        33.5780   -1.9042   -6.0738 C.3       12 UNK        -0.0947 
     70 S70        33.0470   -3.5278   -5.4245 S.3       12 UNK        -0.2240 
     71 C71        33.6561   -3.4792   -3.7085 C.3       12 UNK         0.0194 
     72 H72        26.2203   -7.5905   -5.1638 H         1 UNK         0.0906 
     73 H73        25.8762   -6.4827   -6.4920 H         1 UNK         0.0906 
     74 H74        27.4227   -6.3856   -5.6487 H         1 UNK         0.0906 
     75 H75        27.3614   -5.7653   -3.3023 H         1 UNK         0.3140 
     76 H76        25.1149   -4.7630   -1.9594 H         1 UNK         0.1085 
     77 H77        26.8847   -5.4574   -0.6018 H         1 UNK         0.0836 
     78 H78        26.8796   -3.7375   -0.4006 H         1 UNK         0.0836 
     79 H79        29.5563   -3.1076    0.2029 H         1 UNK         0.0731 
     80 H80        28.6609   -2.2153   -1.0085 H         1 UNK         0.0731 
     81 H81        31.3784   -4.2326   -2.4675 H         1 UNK         0.1312 
     82 H82        33.9524   -0.8597   -2.9918 H         1 UNK         0.1406 
     83 H83        30.4317   -0.4942   -0.5738 H         1 UNK         0.1631 
     84 H84        33.6706    1.0263   -1.3911 H         1 UNK         0.0717 
     85 H85        32.1902    1.2448   -0.4996 H         1 UNK         0.0717 
     86 H86        29.9711    1.6767   -1.4684 H         1 UNK         0.0934 
     87 H87        30.2441    3.3536   -1.8535 H         1 UNK         0.0934 
     88 H88        29.6645    2.8812   -4.2523 H         1 UNK         0.0739 
     89 H89        29.6744    0.1530   -3.4583 H         1 UNK         0.3093 
     90 H90        29.5425   -0.8664   -6.6550 H         1 UNK         0.0818 
     91 H91        30.8056   -1.3580   -4.5661 H         1 UNK         0.0819 
     92 H92        29.3281   -1.9311   -3.7953 H         1 UNK         0.0819 
     93 H93        29.9958   -2.7855   -5.1747 H         1 UNK         0.0819 
     94 H94        27.2649   -1.9512   -5.1204 H         1 UNK         0.3041 
     95 H95        24.9617   -1.5002   -7.7358 H         1 UNK         0.0784 
     96 H96        26.0202   -3.4793   -8.7240 H         1 UNK         0.0793 
     97 H97        26.3799   -4.1433   -7.1405 H         1 UNK         0.0793 
     98 H98        24.7053   -4.0065   -7.6837 H         1 UNK         0.0793 
     99 H99        24.8304   -3.0687   -5.3568 H         1 UNK         0.3024 
    100 H100       24.7005   -0.4942   -2.9835 H         1 UNK         0.1171 
    101 H101       22.3724   -1.1605   -2.4260 H         1 UNK         0.0786 
    102 H102       22.3808   -0.1492   -3.8604 H         1 UNK         0.0786 
    103 H103       22.1698   -1.8875   -4.0216 H         1 UNK         0.0786 
    104 H104       23.8748   -3.2146   -2.7960 H         1 UNK         0.2977 
    105 H105       27.2869    2.3810   -5.0031 H         1 UNK         0.3127 
    106 H106       25.9383    4.5661   -3.7398 H         1 UNK         0.0770 
    107 H107       24.3948    1.9148   -3.7721 H         1 UNK         0.0814 
    108 H108       23.6908    3.4963   -3.4886 H         1 UNK         0.0814 
    109 H109       24.8515    2.8382   -2.3478 H         1 UNK         0.0814 
    110 H110       25.2679    1.8270   -6.0338 H         1 UNK         0.2983 
    111 H111       24.2580    3.6369   -8.0653 H         1 UNK         0.0947 
    112 H112       24.0023    1.5817   -9.3923 H         1 UNK         0.0806 
    113 H113       23.4367    1.2753   -7.7552 H         1 UNK         0.0806 
    114 H114       25.0159    0.6848   -8.2745 H         1 UNK         0.0806 
    115 H115       27.4168    2.2147   -7.3706 H         1 UNK         0.3000 
    116 H116       29.4268    2.3734   -8.1941 H         1 UNK         0.0850 
    117 H117       30.1693    4.3896   -9.3844 H         1 UNK         0.0810 
    118 H118       29.0459    4.8487   -8.1162 H         1 UNK         0.0810 
    119 H119       28.5168    4.8175   -9.7983 H         1 UNK         0.0810 
    120 H120       27.6882    0.5302   -9.4192 H         1 UNK         0.3040 
    121 H121       28.4826    0.4313  -12.2821 H         1 UNK         0.0766 
    122 H122       26.1240   -0.1255  -11.7237 H         1 UNK         0.0812 
    123 H123       26.6577   -1.4038  -10.6352 H         1 UNK         0.0812 
    124 H124       26.9678   -1.5285  -12.3603 H         1 UNK         0.0812 
    125 H125       28.8528   -1.3066   -9.1823 H         1 UNK         0.3205 
    126 H126       31.0400   -3.0155  -10.2849 H         1 UNK         0.0754 
    127 H127       29.1428   -4.1440   -9.0697 H         1 UNK         0.0769 
    128 H128       29.4867   -3.1800   -7.6375 H         1 UNK         0.0769 
    129 H129       30.6636   -4.3453   -8.2173 H         1 UNK         0.0769 
    130 H130       32.8693   -3.3728   -8.7687 H         1 UNK         0.2981 
    131 H131       34.6842   -2.7302   -7.7182 H         1 UNK         0.0541 
    132 H132       35.6604    0.9742   -7.7291 H         1 UNK         0.3459 
    133 H133       35.2341   -0.0091   -6.3537 H         1 UNK         0.3459 
    134 H134       34.4504   -1.5889   -5.5010 H         1 UNK         0.0612 
    135 H135       32.7966   -1.1688   -5.8785 H         1 UNK         0.0612 
    136 H136       34.6827   -3.1108   -3.6857 H         1 UNK         0.0624 
    137 H137       33.6936   -4.4999   -3.3251 H         1 UNK         0.0624 
@<TRIPOS>BOND
     1    1    2 1    
     2    1   72 1    
     3    1   73 1    
     4    1   74 1    
     5    2    3 2    
     6    2    4 am   BACKBONE|DICT|INTERRES
     7    4    5 1    
     8    4   75 1    
     9    5    6 1    
    10    5   35 1    
    11    5   76 1    
    12    6    7 1    
    13    6   77 1    
    14    6   78 1    
    15    7    8 1    
    16    8    9 1    
    17    8   79 1    
    18    8   80 1    
    19    9   10 ar   
    20    9   14 ar   
    21   10   11 ar   
    22   10   81 1    
    23   11   12 ar   
    24   11   71 1    
    25   12   13 ar   
    26   12   82 1    
    27   13   14 ar   
    28   13   15 1    
    29   14   83 1    
    30   15   16 1    
    31   15   84 1    
    32   15   85 1    
    33   16   17 1    
    34   17   18 1    
    35   17   86 1    
    36   17   87 1    
    37   18   19 1    
    38   18   37 1    
    39   18   88 1    
    40   19   20 am   BACKBONE|DICT|INTERRES
    41   19   89 1    
    42   20   21 2    
    43   20   22 1    
    44   22   23 1    
    45   22   24 1    
    46   22   90 1    
    47   23   91 1    
    48   23   92 1    
    49   23   93 1    
    50   24   25 am   BACKBONE|DICT|INTERRES
    51   24   94 1    
    52   25   26 2    
    53   25   27 1    
    54   27   28 1    
    55   27   29 1    
    56   27   95 1    
    57   28   96 1    
    58   28   97 1    
    59   28   98 1    
    60   29   30 am   BACKBONE|DICT|INTERRES
    61   29   99 1    
    62   30   31 2    
    63   30   32 1    
    64   32   33 1    
    65   32   34 1    
    66   32  100 1    
    67   33  101 1    
    68   33  102 1    
    69   33  103 1    
    70   34   35 am   BACKBONE|DICT|INTERRES
    71   34  104 1    
    72   35   36 2    
    73   37   38 2    
    74   37   39 am   BACKBONE|DICT|INTERRES
    75   39   40 1    
    76   39  105 1    
    77   40   41 1    
    78   40   42 1    
    79   40  106 1    
    80   41  107 1    
    81   41  108 1    
    82   41  109 1    
    83   42   43 2    
    84   42   44 am   BACKBONE|DICT|INTERRES
    85   44   45 1    
    86   44  110 1    
    87   45   46 1    
    88   45   47 1    
    89   45  111 1    
    90   46  112 1    
    91   46  113 1    
    92   46  114 1    
    93   47   48 2    
    94   47   49 am   BACKBONE|DICT|INTERRES
    95   49   50 1    
    96   49  115 1    
    97   50   51 1    
    98   50   52 1    
    99   50  116 1    
   100   51  117 1    
   101   51  118 1    
   102   51  119 1    
   103   52   53 2    
   104   52   54 am   BACKBONE|DICT|INTERRES
   105   54   55 1    
   106   54  120 1    
   107   55   56 1    
   108   55   57 1    
   109   55  121 1    
   110   56  122 1    
   111   56  123 1    
   112   56  124 1    
   113   57   58 2    
   114   57   59 am   BACKBONE|DICT|INTERRES
   115   59   60 1    
   116   59  125 1    
   117   60   61 1    
   118   60   62 1    
   119   60  126 1    
   120   61  127 1    
   121   61  128 1    
   122   61  129 1    
   123   62   63 2    
   124   62   64 am   BACKBONE|DICT|INTERRES
   125   64   65 1    
   126   64  130 1    
   127   65   66 1    
   128   65   69 1    
   129   65  131 1    
   130   66   67 am   BACKBONE|DICT|INTERRES
   131   66   68 2    
   132   67  132 1    
   133   67  133 1    
   134   69   70 1    
   135   69  134 1    
   136   69  135 1    
   137   70   71 1    
   138   71  136 1    
   139   71  137 1    
@<TRIPOS>SUBSTRUCTURE
     1 UNK         1 GROUP             0       ****    0 ROOT    
