@<TRIPOS>MOLECULE
3R137
137   139    1
SMALL
USER_CHARGES


@<TRIPOS>ATOM
      1 CA         28.4868   -6.3507   -6.3472 C.3       0 UNK        -0.2020 
      2 C          28.8465   -5.4749   -5.1560 C.2       0 UNK         0.4855 
      3 O          29.8383   -4.7528   -5.2195 O.2       0 UNK        -0.5197 
      4 N          28.0503   -5.5566   -4.0809 N.am      1 UNK        -0.4892 
      5 CA         28.1264   -4.7814   -2.8356 C.3       1 UNK         0.0835 
      6 C6         29.5512   -4.6590   -2.2329 C.3       12 UNK        -0.0855 
      7 S7         29.5126   -4.2911   -0.4457 S.3       12 UNK        -0.2931 
      8 C8         31.1433   -3.5194   -0.1932 C.3       12 UNK         0.0378 
      9 C9         31.2848   -2.1869   -0.9187 C.ar      12 UNK        -0.0802 
     10 C10        32.2111   -2.0476   -1.9573 C.ar      12 UNK        -0.0944 
     11 C11        32.3720   -0.8186   -2.6032 C.ar      12 UNK        -0.0787 
     12 C12        31.6043    0.2756   -2.1994 C.ar      12 UNK        -0.0862 
     13 C13        30.6485    0.1435   -1.1874 C.ar      12 UNK        -0.0733 
     14 C14        30.5038   -1.0891   -0.5416 C.ar      12 UNK        -0.0832 
     15 C15        29.7687    1.3241   -0.7871 C.3       12 UNK         0.0240 
     16 S16        29.1016    2.2549   -2.2111 S.3       12 UNK        -0.2522 
     17 C17        28.1057    0.9854   -3.0623 C.3       12 UNK        -0.0967 
     18 CA         28.0245    1.2189   -4.5928 C.3       5 UNK         0.0660 
     19 N          27.7077   -0.0154   -5.3190 N.am      5 UNK        -0.4015 
     20 C          27.6414   -0.1315   -6.6542 C.2       4 UNK         0.4946 
     21 O          27.9347    0.7660   -7.4426 O.2       4 UNK        -0.5353 
     22 CA         27.1049   -1.4567   -7.2121 C.3       4 UNK         0.0277 
     23 CB         28.2371   -2.4786   -7.3820 C.3       4 UNK        -0.1981 
     24 N          26.0419   -2.0120   -6.3722 N.am      4 UNK        -0.4209 
     25 C          24.8072   -1.4937   -6.2904 C.2       3 UNK         0.4942 
     26 O          24.4246   -0.5287   -6.9516 O.2       3 UNK        -0.5208 
     27 CA         23.8548   -2.1292   -5.2631 C.3       3 UNK         0.0250 
     28 CB         23.2545   -3.4341   -5.8103 C.3       3 UNK        -0.1990 
     29 N          24.5018   -2.3845   -3.9732 N.am      3 UNK        -0.4232 
     30 C          24.9971   -1.4287   -3.1741 C.2       2 UNK         0.4993 
     31 O          24.9129   -0.2259   -3.4160 O.2       2 UNK        -0.5286 
     32 CA         25.7538   -1.8817   -1.9144 C.3       2 UNK         0.0209 
     33 CB         24.7929   -1.9786   -0.7193 C.3       2 UNK        -0.1931 
     34 N          26.4878   -3.1445   -2.0540 N.am      2 UNK        -0.4546 
     35 C          27.4241   -3.4148   -2.9764 C.2       1 UNK         0.5154 
     36 O          27.7221   -2.6418   -3.8911 O.2       1 UNK        -0.5181 
     37 C          27.0370    2.3536   -4.9443 C.2       5 UNK         0.5014 
     38 O          27.4700    3.4317   -5.3535 O.2       5 UNK        -0.5248 
     39 N          25.7301    2.0733   -4.8217 N.am      6 UNK        -0.4434 
     40 CA         24.6353    2.9929   -5.1436 C.3       6 UNK         0.0363 
     41 CB         23.3003    2.3720   -4.7029 C.3       6 UNK        -0.1936 
     42 C          24.5810    3.3860   -6.6294 C.2       6 UNK         0.5081 
     43 O          24.2973    4.5439   -6.9372 O.2       6 UNK        -0.5248 
     44 N          24.8699    2.4293   -7.5219 N.am      7 UNK        -0.4718 
     45 CA         24.9525    2.6448   -8.9696 C.3       7 UNK         0.0273 
     46 CB         24.8757    1.2830   -9.6796 C.3       7 UNK        -0.1935 
     47 C          26.2179    3.4014   -9.4176 C.2       7 UNK         0.5018 
     48 O          26.2554    3.8600  -10.5602 O.2       7 UNK        -0.5186 
     49 N          27.2294    3.4878   -8.5387 N.am      8 UNK        -0.4240 
     50 CA         28.5935    3.9713   -8.7896 C.3       8 UNK         0.0235 
     51 CB         28.6039    5.4833   -9.1000 C.3       8 UNK        -0.2000 
     52 C          29.3181    3.1209   -9.8537 C.2       8 UNK         0.4941 
     53 O          30.0025    3.6615  -10.7257 O.2       8 UNK        -0.5273 
     54 N          29.1260    1.7999   -9.7666 N.am      9 UNK        -0.4262 
     55 CA         29.6980    0.7890  -10.6514 C.3       9 UNK         0.0264 
     56 CB         28.6395   -0.3092  -10.8667 C.3       9 UNK        -0.1955 
     57 C          30.9977    0.2187  -10.0572 C.2       9 UNK         0.5031 
     58 O          31.4389    0.6442   -8.9856 O.2       9 UNK        -0.5390 
     59 N          31.5964   -0.7457  -10.7683 N.am      10 UNK        -0.4204 
     60 CA         32.8174   -1.4566  -10.3812 C.3       10 UNK         0.0237 
     61 CB         33.4106   -2.1417  -11.6270 C.3       10 UNK        -0.1985 
     62 C          32.5706   -2.4480   -9.2257 C.2       10 UNK         0.4970 
     63 O          32.5607   -3.6611   -9.4415 O.2       10 UNK        -0.4914 
     64 N          32.3680   -1.9044   -8.0218 N.am      11 UNK        -0.4285 
     65 CA         32.1933   -2.6394   -6.7595 C.3       11 UNK         0.1007 
     66 C          33.4560   -3.3945   -6.2431 C.2       11 UNK         0.5703 
     67 N          34.6441   -3.1584   -6.7887 N.am      11 UNK        -0.7361 
     68 O          33.3593   -4.2123   -5.3320 O.2       11 UNK        -0.4986 
     69 C69        31.5745   -1.7290   -5.6659 C.3       12 UNK        -0.0947 
     70 S70        32.5566   -0.2283   -5.3123 S.3       12 UNK        -0.2240 
     71 C71        33.3700   -0.6679   -3.7420 C.3       12 UNK         0.0194 
     72 H72        29.2759   -7.0808   -6.5250 H         1 UNK         0.0906 
     73 H73        27.5525   -6.8904   -6.1937 H         1 UNK         0.0906 
     74 H74        28.3816   -5.7411   -7.2439 H         1 UNK         0.0906 
     75 H75        27.2593   -6.1847   -4.1270 H         1 UNK         0.3140 
     76 H76        27.5393   -5.3763   -2.1335 H         1 UNK         0.1085 
     77 H77        30.1277   -3.8982   -2.7621 H         1 UNK         0.0836 
     78 H78        30.0962   -5.5952   -2.3626 H         1 UNK         0.0836 
     79 H79        31.9193   -4.2195   -0.5070 H         1 UNK         0.0731 
     80 H80        31.2935   -3.3577    0.8752 H         1 UNK         0.0731 
     81 H81        32.8073   -2.8962   -2.2649 H         1 UNK         0.1312 
     82 H82        31.7312    1.2254   -2.7007 H         1 UNK         0.1406 
     83 H83        29.7786   -1.2021    0.2532 H         1 UNK         0.1631 
     84 H84        30.3566    2.0035   -0.1688 H         1 UNK         0.0717 
     85 H85        28.9317    0.9901   -0.1718 H         1 UNK         0.0717 
     86 H86        28.5515    0.0085   -2.8691 H         1 UNK         0.0934 
     87 H87        27.1172    0.9606   -2.6032 H         1 UNK         0.0934 
     88 H88        29.0131    1.5230   -4.9446 H         1 UNK         0.0739 
     89 H89        27.5123   -0.8403   -4.7603 H         1 UNK         0.3093 
     90 H90        26.6848   -1.2541   -8.1992 H         1 UNK         0.0818 
     91 H91        29.0476   -2.0754   -7.9905 H         1 UNK         0.0819 
     92 H92        27.8832   -3.3855   -7.8710 H         1 UNK         0.0819 
     93 H93        28.6665   -2.7569   -6.4211 H         1 UNK         0.0819 
     94 H94        26.3045   -2.7534   -5.7371 H         1 UNK         0.3041 
     95 H95        23.0387   -1.4236   -5.0917 H         1 UNK         0.0784 
     96 H96        22.7557   -3.2621   -6.7653 H         1 UNK         0.0793 
     97 H97        24.0170   -4.1967   -5.9736 H         1 UNK         0.0793 
     98 H98        22.5097   -3.8444   -5.1279 H         1 UNK         0.0793 
     99 H99        24.6093   -3.3479   -3.6917 H         1 UNK         0.3024 
    100 H100       26.4923   -1.1116   -1.6881 H         1 UNK         0.1171 
    101 H101       25.3301   -2.1813    0.2075 H         1 UNK         0.0786 
    102 H102       24.2507   -1.0424   -0.5773 H         1 UNK         0.0786 
    103 H103       24.0517   -2.7666   -0.8586 H         1 UNK         0.0786 
    104 H104       26.3157   -3.8329   -1.3349 H         1 UNK         0.2977 
    105 H105       25.4571    1.1687   -4.4376 H         1 UNK         0.3127 
    106 H106       24.7941    3.9067   -4.5673 H         1 UNK         0.0770 
    107 H107       23.1059    1.4300   -5.2178 H         1 UNK         0.0814 
    108 H108       22.4665    3.0417   -4.9174 H         1 UNK         0.0814 
    109 H109       23.2902    2.1738   -3.6310 H         1 UNK         0.0814 
    110 H110       25.0247    1.4820   -7.1918 H         1 UNK         0.2983 
    111 H111       24.0913    3.2413   -9.2785 H         1 UNK         0.0947 
    112 H112       24.8926    1.4032  -10.7637 H         1 UNK         0.0806 
    113 H113       23.9567    0.7538   -9.4269 H         1 UNK         0.0806 
    114 H114       25.7164    0.6434   -9.4096 H         1 UNK         0.0806 
    115 H115       27.0911    3.0549   -7.6330 H         1 UNK         0.3000 
    116 H116       29.1413    3.8211   -7.8578 H         1 UNK         0.0850 
    117 H117       29.6252    5.8616   -9.1559 H         1 UNK         0.0810 
    118 H118       28.0905    6.0499   -8.3231 H         1 UNK         0.0810 
    119 H119       28.1233    5.7068  -10.0528 H         1 UNK         0.0810 
    120 H120       28.6280    1.4447   -8.9498 H         1 UNK         0.3040 
    121 H121       29.9371    1.2383  -11.6176 H         1 UNK         0.0766 
    122 H122       27.7065    0.1129  -11.2413 H         1 UNK         0.0812 
    123 H123       28.4143   -0.8375   -9.9413 H         1 UNK         0.0812 
    124 H124       28.9671   -1.0500  -11.5964 H         1 UNK         0.0812 
    125 H125       31.1618   -1.0481  -11.6282 H         1 UNK         0.3205 
    126 H126       33.5471   -0.7228  -10.0314 H         1 UNK         0.0754 
    127 H127       34.3313   -2.6721  -11.3793 H         1 UNK         0.0769 
    128 H128       33.6573   -1.4140  -12.4004 H         1 UNK         0.0769 
    129 H129       32.7214   -2.8691  -12.0582 H         1 UNK         0.0769 
    130 H130       32.3160   -0.8926   -7.9585 H         1 UNK         0.2981 
    131 H131       31.4609   -3.4220   -6.9645 H         1 UNK         0.0541 
    132 H132       35.4511   -3.6560   -6.4476 H         1 UNK         0.3459 
    133 H133       34.7421   -2.4813   -7.5271 H         1 UNK         0.3459 
    134 H134       31.3922   -2.2936   -4.7502 H         1 UNK         0.0612 
    135 H135       30.5909   -1.3906   -5.9910 H         1 UNK         0.0612 
    136 H136       33.9504   -1.5811   -3.8797 H         1 UNK         0.0624 
    137 H137       34.0845    0.1153   -3.4860 H         1 UNK         0.0624 
@<TRIPOS>BOND
     1    1    2 1    
     2    1   72 1    
     3    1   73 1    
     4    1   74 1    
     5    2    3 2    
     6    2    4 am   BACKBONE|DICT|INTERRES
     7    4    5 1    
     8    4   75 1    
     9    5    6 1    
    10    5   35 1    
    11    5   76 1    
    12    6    7 1    
    13    6   77 1    
    14    6   78 1    
    15    7    8 1    
    16    8    9 1    
    17    8   79 1    
    18    8   80 1    
    19    9   10 ar   
    20    9   14 ar   
    21   10   11 ar   
    22   10   81 1    
    23   11   12 ar   
    24   11   71 1    
    25   12   13 ar   
    26   12   82 1    
    27   13   14 ar   
    28   13   15 1    
    29   14   83 1    
    30   15   16 1    
    31   15   84 1    
    32   15   85 1    
    33   16   17 1    
    34   17   18 1    
    35   17   86 1    
    36   17   87 1    
    37   18   19 1    
    38   18   37 1    
    39   18   88 1    
    40   19   20 am   BACKBONE|DICT|INTERRES
    41   19   89 1    
    42   20   21 2    
    43   20   22 1    
    44   22   23 1    
    45   22   24 1    
    46   22   90 1    
    47   23   91 1    
    48   23   92 1    
    49   23   93 1    
    50   24   25 am   BACKBONE|DICT|INTERRES
    51   24   94 1    
    52   25   26 2    
    53   25   27 1    
    54   27   28 1    
    55   27   29 1    
    56   27   95 1    
    57   28   96 1    
    58   28   97 1    
    59   28   98 1    
    60   29   30 am   BACKBONE|DICT|INTERRES
    61   29   99 1    
    62   30   31 2    
    63   30   32 1    
    64   32   33 1    
    65   32   34 1    
    66   32  100 1    
    67   33  101 1    
    68   33  102 1    
    69   33  103 1    
    70   34   35 am   BACKBONE|DICT|INTERRES
    71   34  104 1    
    72   35   36 2    
    73   37   38 2    
    74   37   39 am   BACKBONE|DICT|INTERRES
    75   39   40 1    
    76   39  105 1    
    77   40   41 1    
    78   40   42 1    
    79   40  106 1    
    80   41  107 1    
    81   41  108 1    
    82   41  109 1    
    83   42   43 2    
    84   42   44 am   BACKBONE|DICT|INTERRES
    85   44   45 1    
    86   44  110 1    
    87   45   46 1    
    88   45   47 1    
    89   45  111 1    
    90   46  112 1    
    91   46  113 1    
    92   46  114 1    
    93   47   48 2    
    94   47   49 am   BACKBONE|DICT|INTERRES
    95   49   50 1    
    96   49  115 1    
    97   50   51 1    
    98   50   52 1    
    99   50  116 1    
   100   51  117 1    
   101   51  118 1    
   102   51  119 1    
   103   52   53 2    
   104   52   54 am   BACKBONE|DICT|INTERRES
   105   54   55 1    
   106   54  120 1    
   107   55   56 1    
   108   55   57 1    
   109   55  121 1    
   110   56  122 1    
   111   56  123 1    
   112   56  124 1    
   113   57   58 2    
   114   57   59 am   BACKBONE|DICT|INTERRES
   115   59   60 1    
   116   59  125 1    
   117   60   61 1    
   118   60   62 1    
   119   60  126 1    
   120   61  127 1    
   121   61  128 1    
   122   61  129 1    
   123   62   63 2    
   124   62   64 am   BACKBONE|DICT|INTERRES
   125   64   65 1    
   126   64  130 1    
   127   65   66 1    
   128   65   69 1    
   129   65  131 1    
   130   66   67 am   BACKBONE|DICT|INTERRES
   131   66   68 2    
   132   67  132 1    
   133   67  133 1    
   134   69   70 1    
   135   69  134 1    
   136   69  135 1    
   137   70   71 1    
   138   71  136 1    
   139   71  137 1    
@<TRIPOS>SUBSTRUCTURE
     1 UNK         1 GROUP             0       ****    0 ROOT    
