@<TRIPOS>MOLECULE
3R137
137   139    1
SMALL
USER_CHARGES


@<TRIPOS>ATOM
      1 CA         28.0436   -5.0034    1.8198 C.3       0 UNK        -0.2020 
      2 C          27.7742   -3.9846    0.7233 C.2       0 UNK         0.4855 
      3 O          27.7689   -4.3472   -0.4527 O.2       0 UNK        -0.5197 
      4 N          27.5541   -2.7184    1.1047 N.am      1 UNK        -0.4892 
      5 CA         27.2744   -1.5408    0.2644 C.3       1 UNK         0.0835 
      6 C6         28.3873   -1.1883   -0.7580 C.3       12 UNK        -0.0855 
      7 S7         30.0251   -0.8998    0.0022 S.3       12 UNK        -0.2931 
      8 C8         30.9774   -2.3769   -0.4928 C.3       12 UNK         0.0378 
      9 C9         31.1011   -2.5080   -2.0048 C.ar      12 UNK        -0.0802 
     10 C10        32.0095   -1.7186   -2.7156 C.ar      12 UNK        -0.0944 
     11 C11        32.0939   -1.8169   -4.1084 C.ar      12 UNK        -0.0787 
     12 C12        31.2624   -2.7126   -4.7900 C.ar      12 UNK        -0.0862 
     13 C13        30.3505   -3.5058   -4.0877 C.ar      12 UNK        -0.0733 
     14 C14        30.2913   -3.4126   -2.6964 C.ar      12 UNK        -0.0832 
     15 C15        29.4115   -4.4561   -4.8139 C.3       12 UNK         0.0240 
     16 S16        27.8327   -3.6422   -5.2209 S.3       12 UNK        -0.2522 
     17 C17        28.1570   -3.1017   -6.9306 C.3       12 UNK        -0.0967 
     18 CA         27.3279   -1.8851   -7.4075 C.3       5 UNK         0.0660 
     19 N          25.8828   -2.0442   -7.2261 N.am      5 UNK        -0.4015 
     20 C          24.9729   -1.3740   -7.9474 C.2       4 UNK         0.4946 
     21 O          25.2605   -0.5597   -8.8264 O.2       4 UNK        -0.5353 
     22 CA         23.4953   -1.6355   -7.6160 C.3       4 UNK         0.0277 
     23 CB         23.0907   -3.0778   -7.9660 C.3       4 UNK        -0.1981 
     24 N          23.1627   -1.3497   -6.2187 N.am      4 UNK        -0.4209 
     25 C          23.2700   -0.1450   -5.6400 C.2       3 UNK         0.4942 
     26 O          23.6897    0.8587   -6.2116 O.2       3 UNK        -0.5208 
     27 CA         22.8518   -0.0331   -4.1661 C.3       3 UNK         0.0250 
     28 CB         21.3493    0.2730   -4.0583 C.3       3 UNK        -0.1990 
     29 N          23.1725   -1.2039   -3.3451 N.am      3 UNK        -0.4232 
     30 C          24.4004   -1.7092   -3.1654 C.2       2 UNK         0.4993 
     31 O          25.4008   -1.3396   -3.7866 O.2       2 UNK        -0.5286 
     32 CA         24.5210   -2.8289   -2.1187 C.3       2 UNK         0.0209 
     33 CB         24.6059   -4.2030   -2.8015 C.3       2 UNK        -0.1931 
     34 N          25.6941   -2.6408   -1.2656 N.am      2 UNK        -0.4546 
     35 C          25.9004   -1.6110   -0.4346 C.2       1 UNK         0.5154 
     36 O          25.0588   -0.7407   -0.2040 O.2       1 UNK        -0.5181 
     37 C          27.8488   -0.5389   -6.8696 C.2       5 UNK         0.5014 
     38 O          28.8162   -0.0236   -7.4276 O.2       5 UNK        -0.5248 
     39 N          27.1843    0.0416   -5.8570 N.am      6 UNK        -0.4434 
     40 CA         27.4568    1.4014   -5.3851 C.3       6 UNK         0.0363 
     41 CB         26.6798    1.6791   -4.0891 C.3       6 UNK        -0.1936 
     42 C          27.1500    2.4661   -6.4549 C.2       6 UNK         0.5081 
     43 O          28.0005    3.3166   -6.7171 O.2       6 UNK        -0.5248 
     44 N          25.9658    2.3873   -7.0823 N.am      7 UNK        -0.4718 
     45 CA         25.5372    3.2873   -8.1604 C.3       7 UNK         0.0273 
     46 CB         24.0463    3.0703   -8.4618 C.3       7 UNK        -0.1935 
     47 C          26.3696    3.1347   -9.4434 C.2       7 UNK         0.5018 
     48 O          26.6455    4.1350  -10.1063 O.2       7 UNK        -0.5186 
     49 N          26.7816    1.8979   -9.7537 N.am      8 UNK        -0.4240 
     50 CA         27.6716    1.5724  -10.8723 C.3       8 UNK         0.0235 
     51 CB         27.5210    0.0793  -11.2085 C.3       8 UNK        -0.2000 
     52 C          29.1530    1.9154  -10.6138 C.2       8 UNK         0.4941 
     53 O          29.9726    1.7034  -11.5097 O.2       8 UNK        -0.5273 
     54 N          29.4923    2.3840   -9.4029 N.am      9 UNK        -0.4262 
     55 CA         30.8287    2.6639   -8.8593 C.3       9 UNK         0.0264 
     56 CB         31.5966    3.7088   -9.6926 C.3       9 UNK        -0.1955 
     57 C          31.6658    1.3961   -8.6205 C.2       9 UNK         0.5031 
     58 O          32.1941    1.2374   -7.5204 O.2       9 UNK        -0.5390 
     59 N          31.7487    0.5247   -9.6373 N.am      10 UNK        -0.4204 
     60 CA         32.2844   -0.8443   -9.6825 C.3       10 UNK         0.0237 
     61 CB         31.4113   -1.7883   -8.8346 C.3       10 UNK        -0.1985 
     62 C          33.7747   -1.0143   -9.3322 C.2       10 UNK         0.4970 
     63 O          34.5042   -1.6408  -10.1015 O.2       10 UNK        -0.4914 
     64 N          34.1932   -0.4818   -8.1827 N.am      11 UNK        -0.4285 
     65 CA         35.5550   -0.5679   -7.6365 C.3       11 UNK         0.1007 
     66 C          36.5606    0.4360   -8.2725 C.2       11 UNK         0.5703 
     67 N          36.1316    1.3754   -9.1079 N.am      11 UNK        -0.7361 
     68 O          37.7585    0.3526   -8.0113 O.2       11 UNK        -0.4986 
     69 C69        35.5481   -0.4541   -6.0883 C.3       12 UNK        -0.0947 
     70 S70        34.6045   -1.7903   -5.2755 S.3       12 UNK        -0.2240 
     71 C71        33.0544   -0.9269   -4.8796 C.3       12 UNK         0.0194 
     72 H72        27.2914   -5.7913    1.7916 H         1 UNK         0.0906 
     73 H73        29.0216   -5.4609    1.6723 H         1 UNK         0.0906 
     74 H74        28.0264   -4.5526    2.8118 H         1 UNK         0.0906 
     75 H75        27.5609   -2.5175    2.0955 H         1 UNK         0.3140 
     76 H76        27.2110   -0.7032    0.9616 H         1 UNK         0.1085 
     77 H77        28.4506   -1.9540   -1.5280 H         1 UNK         0.0836 
     78 H78        28.1237   -0.2722   -1.2904 H         1 UNK         0.0836 
     79 H79        31.9739   -2.3156   -0.0531 H         1 UNK         0.0731 
     80 H80        30.5146   -3.2670   -0.0655 H         1 UNK         0.0731 
     81 H81        32.6374   -1.0160   -2.1848 H         1 UNK         0.1312 
     82 H82        31.3206   -2.7848   -5.8661 H         1 UNK         0.1406 
     83 H83        29.5856   -4.0260   -2.1543 H         1 UNK         0.1631 
     84 H84        29.2022   -5.3208   -4.1823 H         1 UNK         0.0717 
     85 H85        29.8827   -4.8509   -5.7154 H         1 UNK         0.0717 
     86 H86        29.2215   -2.8969   -7.0536 H         1 UNK         0.0934 
     87 H87        27.9502   -3.9520   -7.5824 H         1 UNK         0.0934 
     88 H88        27.4946   -1.8378   -8.4854 H         1 UNK         0.0739 
     89 H89        25.5851   -2.6619   -6.4847 H         1 UNK         0.3093 
     90 H90        22.9015   -0.9610   -8.2370 H         1 UNK         0.0818 
     91 H91        22.0163   -3.2246   -7.8539 H         1 UNK         0.0819 
     92 H92        23.3398   -3.3117   -9.0022 H         1 UNK         0.0819 
     93 H93        23.5955   -3.8108   -7.3357 H         1 UNK         0.0819 
     94 H94        22.8142   -2.1160   -5.6618 H         1 UNK         0.3041 
     95 H95        23.3965    0.8119   -3.7409 H         1 UNK         0.0784 
     96 H96        21.0878    1.1548   -4.6454 H         1 UNK         0.0793 
     97 H97        20.7398   -0.5543   -4.4242 H         1 UNK         0.0793 
     98 H98        21.0575    0.4764   -3.0277 H         1 UNK         0.0793 
     99 H99        22.4103   -1.5865   -2.8040 H         1 UNK         0.3024 
    100 H100       23.6397   -2.8120   -1.4738 H         1 UNK         0.1171 
    101 H101       23.7339   -4.3840   -3.4313 H         1 UNK         0.0786 
    102 H102       24.6490   -5.0082   -2.0678 H         1 UNK         0.0786 
    103 H103       25.4895   -4.2824   -3.4353 H         1 UNK         0.0786 
    104 H104       26.4399   -3.3281   -1.3390 H         1 UNK         0.2977 
    105 H105       26.4364   -0.4657   -5.3939 H         1 UNK         0.3127 
    106 H106       28.5229    1.4616   -5.1551 H         1 UNK         0.0770 
    107 H107       25.6029    1.6232   -4.2448 H         1 UNK         0.0814 
    108 H108       26.9034    2.6756   -3.7064 H         1 UNK         0.0814 
    109 H109       26.9421    0.9644   -3.3088 H         1 UNK         0.0814 
    110 H110       25.2932    1.6793   -6.7937 H         1 UNK         0.2983 
    111 H111       25.6666    4.3129   -7.8077 H         1 UNK         0.0947 
    112 H112       23.7055    3.7344   -9.2572 H         1 UNK         0.0806 
    113 H113       23.4316    3.2735   -7.5848 H         1 UNK         0.0806 
    114 H114       23.8457    2.0462   -8.7804 H         1 UNK         0.0806 
    115 H115       26.4506    1.1209   -9.1896 H         1 UNK         0.3000 
    116 H116       27.3551    2.1502  -11.7432 H         1 UNK         0.0850 
    117 H117       28.0915   -0.1824  -12.1006 H         1 UNK         0.0810 
    118 H118       26.4808   -0.1837  -11.4018 H         1 UNK         0.0810 
    119 H119       27.8821   -0.5505  -10.3959 H         1 UNK         0.0810 
    120 H120       28.7485    2.4678   -8.7203 H         1 UNK         0.3040 
    121 H121       30.6473    3.1039   -7.8772 H         1 UNK         0.0766 
    122 H122       32.5315    3.9816   -9.2016 H         1 UNK         0.0812 
    123 H123       31.0149    4.6227   -9.8124 H         1 UNK         0.0812 
    124 H124       31.8514    3.3412  -10.6867 H         1 UNK         0.0812 
    125 H125       31.2724    0.8228  -10.4871 H         1 UNK         0.3205 
    126 H126       32.1802   -1.1587  -10.7222 H         1 UNK         0.0754 
    127 H127       31.7921   -2.8103   -8.8566 H         1 UNK         0.0769 
    128 H128       30.3868   -1.8134   -9.2065 H         1 UNK         0.0769 
    129 H129       31.3743   -1.4714   -7.7928 H         1 UNK         0.0769 
    130 H130       33.5247    0.0855   -7.6637 H         1 UNK         0.2981 
    131 H131       35.9429   -1.5579   -7.8837 H         1 UNK         0.0541 
    132 H132       35.1527    1.4493   -9.3310 H         1 UNK         0.3459 
    133 H133       36.7955    2.0143   -9.5162 H         1 UNK         0.3459 
    134 H134       35.1576    0.5166   -5.7776 H         1 UNK         0.0612 
    135 H135       36.5663   -0.5073   -5.6986 H         1 UNK         0.0612 
    136 H136       33.2748   -0.0234   -4.3090 H         1 UNK         0.0624 
    137 H137       32.5771   -0.6024   -5.8022 H         1 UNK         0.0624 
@<TRIPOS>BOND
     1    1    2 1    
     2    1   72 1    
     3    1   73 1    
     4    1   74 1    
     5    2    3 2    
     6    2    4 am   BACKBONE|DICT|INTERRES
     7    4    5 1    
     8    4   75 1    
     9    5    6 1    
    10    5   35 1    
    11    5   76 1    
    12    6    7 1    
    13    6   77 1    
    14    6   78 1    
    15    7    8 1    
    16    8    9 1    
    17    8   79 1    
    18    8   80 1    
    19    9   10 ar   
    20    9   14 ar   
    21   10   11 ar   
    22   10   81 1    
    23   11   12 ar   
    24   11   71 1    
    25   12   13 ar   
    26   12   82 1    
    27   13   14 ar   
    28   13   15 1    
    29   14   83 1    
    30   15   16 1    
    31   15   84 1    
    32   15   85 1    
    33   16   17 1    
    34   17   18 1    
    35   17   86 1    
    36   17   87 1    
    37   18   19 1    
    38   18   37 1    
    39   18   88 1    
    40   19   20 am   BACKBONE|DICT|INTERRES
    41   19   89 1    
    42   20   21 2    
    43   20   22 1    
    44   22   23 1    
    45   22   24 1    
    46   22   90 1    
    47   23   91 1    
    48   23   92 1    
    49   23   93 1    
    50   24   25 am   BACKBONE|DICT|INTERRES
    51   24   94 1    
    52   25   26 2    
    53   25   27 1    
    54   27   28 1    
    55   27   29 1    
    56   27   95 1    
    57   28   96 1    
    58   28   97 1    
    59   28   98 1    
    60   29   30 am   BACKBONE|DICT|INTERRES
    61   29   99 1    
    62   30   31 2    
    63   30   32 1    
    64   32   33 1    
    65   32   34 1    
    66   32  100 1    
    67   33  101 1    
    68   33  102 1    
    69   33  103 1    
    70   34   35 am   BACKBONE|DICT|INTERRES
    71   34  104 1    
    72   35   36 2    
    73   37   38 2    
    74   37   39 am   BACKBONE|DICT|INTERRES
    75   39   40 1    
    76   39  105 1    
    77   40   41 1    
    78   40   42 1    
    79   40  106 1    
    80   41  107 1    
    81   41  108 1    
    82   41  109 1    
    83   42   43 2    
    84   42   44 am   BACKBONE|DICT|INTERRES
    85   44   45 1    
    86   44  110 1    
    87   45   46 1    
    88   45   47 1    
    89   45  111 1    
    90   46  112 1    
    91   46  113 1    
    92   46  114 1    
    93   47   48 2    
    94   47   49 am   BACKBONE|DICT|INTERRES
    95   49   50 1    
    96   49  115 1    
    97   50   51 1    
    98   50   52 1    
    99   50  116 1    
   100   51  117 1    
   101   51  118 1    
   102   51  119 1    
   103   52   53 2    
   104   52   54 am   BACKBONE|DICT|INTERRES
   105   54   55 1    
   106   54  120 1    
   107   55   56 1    
   108   55   57 1    
   109   55  121 1    
   110   56  122 1    
   111   56  123 1    
   112   56  124 1    
   113   57   58 2    
   114   57   59 am   BACKBONE|DICT|INTERRES
   115   59   60 1    
   116   59  125 1    
   117   60   61 1    
   118   60   62 1    
   119   60  126 1    
   120   61  127 1    
   121   61  128 1    
   122   61  129 1    
   123   62   63 2    
   124   62   64 am   BACKBONE|DICT|INTERRES
   125   64   65 1    
   126   64  130 1    
   127   65   66 1    
   128   65   69 1    
   129   65  131 1    
   130   66   67 am   BACKBONE|DICT|INTERRES
   131   66   68 2    
   132   67  132 1    
   133   67  133 1    
   134   69   70 1    
   135   69  134 1    
   136   69  135 1    
   137   70   71 1    
   138   71  136 1    
   139   71  137 1    
@<TRIPOS>SUBSTRUCTURE
     1 UNK         1 GROUP             0       ****    0 ROOT    
