@<TRIPOS>MOLECULE
3R137
137   139    1
SMALL
USER_CHARGES


@<TRIPOS>ATOM
      1 CA         27.8415   -6.8198   -2.1551 C.3       0 UNK        -0.2020 
      2 C          28.0676   -5.5560   -1.3390 C.2       0 UNK         0.4855 
      3 O          28.2403   -5.6353   -0.1228 O.2       0 UNK        -0.5197 
      4 N          28.0733   -4.3984   -2.0057 N.am      1 UNK        -0.4892 
      5 CA         28.1846   -3.0660   -1.4135 C.3       1 UNK         0.0835 
      6 C6         29.5119   -2.3583   -1.7992 C.3       12 UNK        -0.0855 
      7 S7         30.9466   -2.8710   -0.7842 S.3       12 UNK        -0.2931 
      8 C8         31.6049   -4.3720   -1.5961 C.3       12 UNK         0.0378 
      9 C9         31.8884   -4.1719   -3.0769 C.ar      12 UNK        -0.0802 
     10 C10        33.0948   -3.6171   -3.5113 C.ar      12 UNK        -0.0944 
     11 C11        33.3190   -3.3925   -4.8738 C.ar      12 UNK        -0.0787 
     12 C12        32.3159   -3.7066   -5.7997 C.ar      12 UNK        -0.0862 
     13 C13        31.1048   -4.2613   -5.3742 C.ar      12 UNK        -0.0733 
     14 C14        30.9237   -4.5341   -4.0174 C.ar      12 UNK        -0.0832 
     15 C15        29.9837   -4.5435   -6.3711 C.3       12 UNK         0.0240 
     16 S16        28.3482   -3.9696   -5.7816 S.3       12 UNK        -0.2522 
     17 C17        28.6215   -2.1721   -5.6175 C.3       12 UNK        -0.0967 
     18 CA         27.6896   -1.3613   -6.5368 C.3       5 UNK         0.0660 
     19 N          26.2799   -1.4755   -6.1570 N.am      5 UNK        -0.4015 
     20 C          25.2708   -1.1766   -6.9856 C.2       4 UNK         0.4946 
     21 O          25.4289   -0.7703   -8.1374 O.2       4 UNK        -0.5353 
     22 CA         23.8489   -1.3067   -6.4213 C.3       4 UNK         0.0277 
     23 CB         23.5194   -2.7666   -6.0655 C.3       4 UNK        -0.1981 
     24 N          23.6366   -0.4515   -5.2535 N.am      4 UNK        -0.4209 
     25 C          23.7393    0.8860   -5.2466 C.2       3 UNK         0.4942 
     26 O          23.9954    1.5630   -6.2409 O.2       3 UNK        -0.5208 
     27 CA         23.5394    1.5945   -3.8964 C.3       3 UNK         0.0250 
     28 CB         22.0709    2.0168   -3.7291 C.3       3 UNK        -0.1990 
     29 N          23.9507    0.8023   -2.7342 N.am      3 UNK        -0.4232 
     30 C          25.1782    0.3113   -2.5074 C.2       2 UNK         0.4993 
     31 O          26.1288    0.4636   -3.2795 O.2       2 UNK        -0.5286 
     32 CA         25.3523   -0.4560   -1.1794 C.3       2 UNK         0.0209 
     33 CB         24.1321   -1.3464   -0.8434 C.3       2 UNK        -0.1931 
     34 N          26.5818   -1.2546   -1.0893 N.am      2 UNK        -0.4546 
     35 C          26.9515   -2.2693   -1.8836 C.2       1 UNK         0.5154 
     36 O          26.3533   -2.6023   -2.9142 O.2       1 UNK        -0.5181 
     37 C          28.1440    0.1055   -6.6409 C.2       5 UNK         0.5014 
     38 O          29.0069    0.3903   -7.4722 O.2       5 UNK        -0.5248 
     39 N          27.5521    1.0241   -5.8608 N.am      6 UNK        -0.4434 
     40 CA         27.8041    2.4642   -5.9871 C.3       6 UNK         0.0363 
     41 CB         27.1186    3.2278   -4.8465 C.3       6 UNK        -0.1936 
     42 C          27.3743    3.0315   -7.3536 C.2       6 UNK         0.5081 
     43 O          28.0447    3.9249   -7.8688 O.2       6 UNK        -0.5248 
     44 N          26.2922    2.4921   -7.9299 N.am      7 UNK        -0.4718 
     45 CA         25.8485    2.8053   -9.2864 C.3       7 UNK         0.0273 
     46 CB         24.3468    2.5042   -9.4217 C.3       7 UNK        -0.1935 
     47 C          26.6571    2.0414  -10.3474 C.2       7 UNK         0.5018 
     48 O          27.1240    2.6584  -11.3054 O.2       7 UNK        -0.5186 
     49 N          26.7783    0.7158  -10.1819 N.am      8 UNK        -0.4240 
     50 CA         27.3435   -0.1845  -11.1906 C.3       8 UNK         0.0235 
     51 CB         26.9012   -1.6283  -10.9002 C.3       8 UNK        -0.2000 
     52 C          28.8727   -0.1128  -11.3220 C.2       8 UNK         0.4941 
     53 O          29.3738   -0.1115  -12.4474 O.2       8 UNK        -0.5273 
     54 N          29.5830   -0.0976  -10.1875 N.am      9 UNK        -0.4262 
     55 CA         31.0444   -0.1992  -10.1206 C.3       9 UNK         0.0264 
     56 CB         31.4112   -1.3969   -9.2237 C.3       9 UNK        -0.1955 
     57 C          31.7138    1.0761   -9.5862 C.2       9 UNK         0.5031 
     58 O          32.9136    1.2441   -9.8079 O.2       9 UNK        -0.5390 
     59 N          30.9541    1.9216   -8.8710 N.am      10 UNK        -0.4204 
     60 CA         31.4175    3.0565   -8.0601 C.3       10 UNK         0.0237 
     61 CB         32.0446    4.1645   -8.9336 C.3       10 UNK        -0.1985 
     62 C          32.3298    2.5770   -6.9156 C.2       10 UNK         0.4970 
     63 O          33.4107    3.1304   -6.7054 O.2       10 UNK        -0.4914 
     64 N          31.8825    1.5208   -6.2274 N.am      11 UNK        -0.4285 
     65 CA         32.6515    0.7595   -5.2403 C.3       11 UNK         0.1007 
     66 C          31.7154    0.1689   -4.1495 C.2       11 UNK         0.5703 
     67 N          32.2627   -0.2484   -3.0174 N.am      11 UNK        -0.7361 
     68 O          30.5002    0.0950   -4.3118 O.2       11 UNK        -0.4986 
     69 C69        33.5191   -0.3031   -5.9699 C.3       12 UNK        -0.0947 
     70 S70        34.8266   -1.0467   -4.9394 S.3       12 UNK        -0.2240 
     71 C71        34.6473   -2.8138   -5.3436 C.3       12 UNK         0.0194 
     72 H72        27.7027   -6.6029   -3.2144 H         1 UNK         0.0906 
     73 H73        28.6965   -7.4881   -2.0556 H         1 UNK         0.0906 
     74 H74        26.9555   -7.3440   -1.7977 H         1 UNK         0.0906 
     75 H75        27.8052   -4.3799   -2.9822 H         1 UNK         0.3140 
     76 H76        28.1224   -3.1341   -0.3249 H         1 UNK         0.1085 
     77 H77        29.7382   -2.4749   -2.8563 H         1 UNK         0.0836 
     78 H78        29.4196   -1.2801   -1.6528 H         1 UNK         0.0836 
     79 H79        32.5240   -4.6664   -1.0874 H         1 UNK         0.0731 
     80 H80        30.9100   -5.1983   -1.4497 H         1 UNK         0.0731 
     81 H81        33.8535   -3.3463   -2.7898 H         1 UNK         0.1312 
     82 H82        32.4761   -3.5116   -6.8513 H         1 UNK         0.1406 
     83 H83        29.9999   -4.9819   -3.6868 H         1 UNK         0.1631 
     84 H84        29.9366   -5.6177   -6.5536 H         1 UNK         0.0717 
     85 H85        30.1929   -4.0717   -7.3326 H         1 UNK         0.0717 
     86 H86        28.4647   -1.8773   -4.5807 H         1 UNK         0.0934 
     87 H87        29.6669   -1.9507   -5.8407 H         1 UNK         0.0934 
     88 H88        27.7922   -1.7771   -7.5415 H         1 UNK         0.0739 
     89 H89        26.0857   -1.7812   -5.2115 H         1 UNK         0.3093 
     90 H90        23.1561   -0.9814   -7.2003 H         1 UNK         0.0818 
     91 H91        22.4736   -2.8767   -5.7782 H         1 UNK         0.0819 
     92 H92        23.6890   -3.4235   -6.9199 H         1 UNK         0.0819 
     93 H93        24.1325   -3.1372   -5.2426 H         1 UNK         0.0819 
     94 H94        23.4322   -0.9145   -4.3804 H         1 UNK         0.3041 
     95 H95        24.1478    2.4989   -3.9031 H         1 UNK         0.0784 
     96 H96        21.7438    2.6305   -4.5700 H         1 UNK         0.0793 
     97 H97        21.4046    1.1548   -3.6769 H         1 UNK         0.0793 
     98 H98        21.9273    2.6092   -2.8252 H         1 UNK         0.0793 
     99 H99        23.2381    0.6334   -2.0391 H         1 UNK         0.3024 
    100 H100       25.4336    0.3079   -0.4040 H         1 UNK         0.1171 
    101 H101       23.2320   -0.7563   -0.6693 H         1 UNK         0.0786 
    102 H102       24.3041   -1.9229    0.0658 H         1 UNK         0.0786 
    103 H103       23.9144   -2.0538   -1.6449 H         1 UNK         0.0786 
    104 H104       27.1757   -1.0315   -0.3026 H         1 UNK         0.2977 
    105 H105       26.9051    0.7285   -5.1348 H         1 UNK         0.3127 
    106 H106       28.8808    2.6147   -5.8880 H         1 UNK         0.0770 
    107 H107       26.0348    3.1664   -4.9237 H         1 UNK         0.0814 
    108 H108       27.3854    4.2850   -4.8727 H         1 UNK         0.0814 
    109 H109       27.4145    2.8415   -3.8710 H         1 UNK         0.0814 
    110 H110       25.7461    1.8085   -7.4158 H         1 UNK         0.2983 
    111 H111       25.9903    3.8737   -9.4659 H         1 UNK         0.0947 
    112 H112       23.9912    2.7280  -10.4283 H         1 UNK         0.0806 
    113 H113       23.7605    3.1073   -8.7281 H         1 UNK         0.0806 
    114 H114       24.1218    1.4562   -9.2192 H         1 UNK         0.0806 
    115 H115       26.3319    0.2771   -9.3778 H         1 UNK         0.3000 
    116 H116       26.9227    0.0981  -12.1584 H         1 UNK         0.0850 
    117 H117       27.2744   -2.3130  -11.6631 H         1 UNK         0.0810 
    118 H118       25.8145   -1.7152  -10.8908 H         1 UNK         0.0810 
    119 H119       27.2713   -1.9802   -9.9370 H         1 UNK         0.0810 
    120 H120       29.0979   -0.0619   -9.2951 H         1 UNK         0.3040 
    121 H121       31.4614   -0.3839  -11.1128 H         1 UNK         0.0766 
    122 H122       31.0334   -1.2750   -8.2079 H         1 UNK         0.0812 
    123 H123       32.4932   -1.5186   -9.1557 H         1 UNK         0.0812 
    124 H124       31.0057   -2.3273   -9.6212 H         1 UNK         0.0812 
    125 H125       30.0005    1.6284   -8.6889 H         1 UNK         0.3205 
    126 H126       30.5381    3.4822   -7.5805 H         1 UNK         0.0754 
    127 H127       32.2701    5.0482   -8.3356 H         1 UNK         0.0769 
    128 H128       31.3630    4.4749   -9.7256 H         1 UNK         0.0769 
    129 H129       32.9767    3.8432   -9.3988 H         1 UNK         0.0769 
    130 H130       30.9608    1.1471   -6.4203 H         1 UNK         0.2981 
    131 H131       33.3134    1.4581   -4.7248 H         1 UNK         0.0541 
    132 H132       33.2630   -0.2310   -2.8971 H         1 UNK         0.3459 
    133 H133       31.6765   -0.6596   -2.3092 H         1 UNK         0.3459 
    134 H134       34.0286    0.1538   -6.8199 H         1 UNK         0.0612 
    135 H135       32.8802   -1.0744   -6.3986 H         1 UNK         0.0612 
    136 H136       35.4631   -3.3642   -4.8731 H         1 UNK         0.0624 
    137 H137       34.7703   -2.9473   -6.4195 H         1 UNK         0.0624 
@<TRIPOS>BOND
     1    1    2 1    
     2    1   72 1    
     3    1   73 1    
     4    1   74 1    
     5    2    3 2    
     6    2    4 am   BACKBONE|DICT|INTERRES
     7    4    5 1    
     8    4   75 1    
     9    5    6 1    
    10    5   35 1    
    11    5   76 1    
    12    6    7 1    
    13    6   77 1    
    14    6   78 1    
    15    7    8 1    
    16    8    9 1    
    17    8   79 1    
    18    8   80 1    
    19    9   10 ar   
    20    9   14 ar   
    21   10   11 ar   
    22   10   81 1    
    23   11   12 ar   
    24   11   71 1    
    25   12   13 ar   
    26   12   82 1    
    27   13   14 ar   
    28   13   15 1    
    29   14   83 1    
    30   15   16 1    
    31   15   84 1    
    32   15   85 1    
    33   16   17 1    
    34   17   18 1    
    35   17   86 1    
    36   17   87 1    
    37   18   19 1    
    38   18   37 1    
    39   18   88 1    
    40   19   20 am   BACKBONE|DICT|INTERRES
    41   19   89 1    
    42   20   21 2    
    43   20   22 1    
    44   22   23 1    
    45   22   24 1    
    46   22   90 1    
    47   23   91 1    
    48   23   92 1    
    49   23   93 1    
    50   24   25 am   BACKBONE|DICT|INTERRES
    51   24   94 1    
    52   25   26 2    
    53   25   27 1    
    54   27   28 1    
    55   27   29 1    
    56   27   95 1    
    57   28   96 1    
    58   28   97 1    
    59   28   98 1    
    60   29   30 am   BACKBONE|DICT|INTERRES
    61   29   99 1    
    62   30   31 2    
    63   30   32 1    
    64   32   33 1    
    65   32   34 1    
    66   32  100 1    
    67   33  101 1    
    68   33  102 1    
    69   33  103 1    
    70   34   35 am   BACKBONE|DICT|INTERRES
    71   34  104 1    
    72   35   36 2    
    73   37   38 2    
    74   37   39 am   BACKBONE|DICT|INTERRES
    75   39   40 1    
    76   39  105 1    
    77   40   41 1    
    78   40   42 1    
    79   40  106 1    
    80   41  107 1    
    81   41  108 1    
    82   41  109 1    
    83   42   43 2    
    84   42   44 am   BACKBONE|DICT|INTERRES
    85   44   45 1    
    86   44  110 1    
    87   45   46 1    
    88   45   47 1    
    89   45  111 1    
    90   46  112 1    
    91   46  113 1    
    92   46  114 1    
    93   47   48 2    
    94   47   49 am   BACKBONE|DICT|INTERRES
    95   49   50 1    
    96   49  115 1    
    97   50   51 1    
    98   50   52 1    
    99   50  116 1    
   100   51  117 1    
   101   51  118 1    
   102   51  119 1    
   103   52   53 2    
   104   52   54 am   BACKBONE|DICT|INTERRES
   105   54   55 1    
   106   54  120 1    
   107   55   56 1    
   108   55   57 1    
   109   55  121 1    
   110   56  122 1    
   111   56  123 1    
   112   56  124 1    
   113   57   58 2    
   114   57   59 am   BACKBONE|DICT|INTERRES
   115   59   60 1    
   116   59  125 1    
   117   60   61 1    
   118   60   62 1    
   119   60  126 1    
   120   61  127 1    
   121   61  128 1    
   122   61  129 1    
   123   62   63 2    
   124   62   64 am   BACKBONE|DICT|INTERRES
   125   64   65 1    
   126   64  130 1    
   127   65   66 1    
   128   65   69 1    
   129   65  131 1    
   130   66   67 am   BACKBONE|DICT|INTERRES
   131   66   68 2    
   132   67  132 1    
   133   67  133 1    
   134   69   70 1    
   135   69  134 1    
   136   69  135 1    
   137   70   71 1    
   138   71  136 1    
   139   71  137 1    
@<TRIPOS>SUBSTRUCTURE
     1 UNK         1 GROUP             0       ****    0 ROOT    
