@<TRIPOS>MOLECULE
3R137
137   139    1
SMALL
USER_CHARGES


@<TRIPOS>ATOM
      1 CA         27.8928   -6.1231   -5.1573 C.3       0 UNK        -0.2020 
      2 C          27.5091   -6.3268   -3.7009 C.2       0 UNK         0.4855 
      3 O          26.6040   -7.1088   -3.4102 O.2       0 UNK        -0.5197 
      4 N          28.1970   -5.6377   -2.7812 N.am      1 UNK        -0.4892 
      5 CA         27.9642   -5.7216   -1.3339 C.3       1 UNK         0.0835 
      6 C6         29.2203   -5.2908   -0.5307 C.3       12 UNK        -0.0855 
      7 S7         29.6651   -3.5266   -0.7148 S.3       12 UNK        -0.2931 
      8 C8         31.0508   -3.5552   -1.9005 C.3       12 UNK         0.0378 
      9 C9         30.8830   -2.4586   -2.9437 C.ar      12 UNK        -0.0802 
     10 C10        30.8709   -1.1158   -2.5509 C.ar      12 UNK        -0.0944 
     11 C11        30.6403   -0.1006   -3.4828 C.ar      12 UNK        -0.0787 
     12 C12        30.4322   -0.4394   -4.8236 C.ar      12 UNK        -0.0862 
     13 C13        30.4794   -1.7740   -5.2368 C.ar      12 UNK        -0.0733 
     14 C14        30.7101   -2.7805   -4.2940 C.ar      12 UNK        -0.0832 
     15 C15        30.2410   -2.1216   -6.6995 C.3       12 UNK         0.0240 
     16 S16        28.7134   -3.0887   -6.9704 S.3       12 UNK        -0.2522 
     17 C17        27.4647   -2.2173   -5.9559 C.3       12 UNK        -0.0967 
     18 CA         26.5922   -1.2005   -6.7275 C.3       5 UNK         0.0660 
     19 N          25.4249   -0.8163   -5.9300 N.am      5 UNK        -0.4015 
     20 C          24.4110   -0.0461   -6.3556 C.2       4 UNK         0.4946 
     21 O          24.3154    0.3770   -7.5084 O.2       4 UNK        -0.5353 
     22 CA         23.3440    0.3627   -5.3201 C.3       4 UNK         0.0277 
     23 CB         22.0930   -0.5187   -5.4653 C.3       4 UNK        -0.1981 
     24 N          23.8055    0.3179   -3.9278 N.am      4 UNK        -0.4209 
     25 C          24.8300    1.0229   -3.4238 C.2       3 UNK         0.4942 
     26 O          25.4845    1.8367   -4.0750 O.2       3 UNK        -0.5208 
     27 CA         25.2354    0.7272   -1.9684 C.3       3 UNK         0.0250 
     28 CB         24.5543    1.7193   -1.0115 C.3       3 UNK        -0.1990 
     29 N          24.9700   -0.6476   -1.5183 N.am      3 UNK        -0.4232 
     30 C          25.4502   -1.7577   -2.0976 C.2       2 UNK         0.4993 
     31 O          26.0887   -1.7627   -3.1536 O.2       2 UNK        -0.5286 
     32 CA         25.1346   -3.0898   -1.4124 C.3       2 UNK         0.0209 
     33 CB         23.8192   -3.6839   -1.9436 C.3       2 UNK        -0.1931 
     34 N          26.2373   -4.0016   -1.6924 N.am      2 UNK        -0.4546 
     35 C          26.6910   -4.9665   -0.8837 C.2       1 UNK         0.5154 
     36 O          26.1545   -5.2671    0.1841 O.2       1 UNK        -0.5181 
     37 C          27.4127    0.0194   -7.2018 C.2       5 UNK         0.5014 
     38 O          27.9819   -0.0422   -8.2906 O.2       5 UNK        -0.5248 
     39 N          27.4160    1.1232   -6.4340 N.am      6 UNK        -0.4434 
     40 CA         28.1231    2.3690   -6.7623 C.3       6 UNK         0.0363 
     41 CB         27.9822    3.3573   -5.5943 C.3       6 UNK        -0.1936 
     42 C          27.6699    3.0353   -8.0774 C.2       6 UNK         0.5081 
     43 O          28.4324    3.8120   -8.6530 O.2       6 UNK        -0.5248 
     44 N          26.4484    2.7266   -8.5351 N.am      7 UNK        -0.4718 
     45 CA         25.9201    3.1598   -9.8294 C.3       7 UNK         0.0273 
     46 CB         24.3863    3.2184   -9.7423 C.3       7 UNK        -0.1935 
     47 C          26.3570    2.2474  -10.9919 C.2       7 UNK         0.5018 
     48 O          26.2170    2.6562  -12.1457 O.2       7 UNK        -0.5186 
     49 N          26.8452    1.0360  -10.6884 N.am      8 UNK        -0.4240 
     50 CA         27.2203    0.0145  -11.6666 C.3       8 UNK         0.0235 
     51 CB         26.6296   -1.3386  -11.2340 C.3       8 UNK        -0.2000 
     52 C          28.7421   -0.1002  -11.8335 C.2       8 UNK         0.4941 
     53 O          29.2000   -0.3053  -12.9588 O.2       8 UNK        -0.5273 
     54 N          29.5000    0.0183  -10.7361 N.am      9 UNK        -0.4262 
     55 CA         30.9544   -0.1293  -10.7071 C.3       9 UNK         0.0264 
     56 CB         31.3120   -1.6177  -10.5323 C.3       9 UNK        -0.1955 
     57 C          31.5523    0.7189   -9.5786 C.2       9 UNK         0.5031 
     58 O          30.8306    1.1451   -8.6763 O.2       9 UNK        -0.5390 
     59 N          32.8712    0.9401   -9.6425 N.am      10 UNK        -0.4204 
     60 CA         33.6406    1.6371   -8.6100 C.3       10 UNK         0.0237 
     61 CB         35.0414    1.9638   -9.1534 C.3       10 UNK        -0.1985 
     62 C          33.7426    0.8008   -7.3234 C.2       10 UNK         0.4970 
     63 O          33.8902   -0.4218   -7.4000 O.2       10 UNK        -0.4914 
     64 N          33.6804    1.4822   -6.1755 N.am      11 UNK        -0.4285 
     65 CA         33.7782    0.8808   -4.8390 C.3       11 UNK         0.1007 
     66 C          35.2059    0.3643   -4.5153 C.2       11 UNK         0.5703 
     67 N          35.3166   -0.6867   -3.7150 N.am      11 UNK        -0.7361 
     68 O          36.2100    0.9289   -4.9466 O.2       11 UNK        -0.4986 
     69 C69        33.2764    1.8516   -3.7363 C.3       12 UNK        -0.0947 
     70 S70        31.5876    2.4758   -4.0461 S.3       12 UNK        -0.2240 
     71 C71        30.5803    1.3523   -3.0233 C.3       12 UNK         0.0194 
     72 H72        27.1075   -5.5795   -5.6815 H         1 UNK         0.0906 
     73 H73        28.8227   -5.5648   -5.2569 H         1 UNK         0.0906 
     74 H74        28.0269   -7.0855   -5.6498 H         1 UNK         0.0906 
     75 H75        28.9149   -4.9887   -3.0678 H         1 UNK         0.3140 
     76 H76        27.7831   -6.7721   -1.0945 H         1 UNK         0.1085 
     77 H77        29.0588   -5.4818    0.5319 H         1 UNK         0.0836 
     78 H78        30.0714   -5.9157   -0.8046 H         1 UNK         0.0836 
     79 H79        31.1217   -4.5324   -2.3798 H         1 UNK         0.0731 
     80 H80        31.9875   -3.4067   -1.3621 H         1 UNK         0.0731 
     81 H81        31.0075   -0.8671   -1.5072 H         1 UNK         0.1312 
     82 H82        30.2413    0.3399   -5.5489 H         1 UNK         0.1406 
     83 H83        30.7267   -3.8129   -4.6151 H         1 UNK         0.1631 
     84 H84        31.0920   -2.6920   -7.0741 H         1 UNK         0.0717 
     85 H85        30.1981   -1.2160   -7.3059 H         1 UNK         0.0717 
     86 H86        26.8208   -2.9974   -5.5470 H         1 UNK         0.0934 
     87 H87        27.9173   -1.7483   -5.0826 H         1 UNK         0.0934 
     88 H88        26.2088   -1.6944   -7.6233 H         1 UNK         0.0739 
     89 H89        25.4473   -1.1021   -4.9554 H         1 UNK         0.3093 
     90 H90        23.0649    1.3958   -5.5386 H         1 UNK         0.0818 
     91 H91        21.2895   -0.1801   -4.8106 H         1 UNK         0.0819 
     92 H92        21.7097   -0.4875   -6.4864 H         1 UNK         0.0819 
     93 H93        22.3044   -1.5626   -5.2290 H         1 UNK         0.0819 
     94 H94        23.3324   -0.3290   -3.3141 H         1 UNK         0.3041 
     95 H95        26.3151    0.8805   -1.9047 H         1 UNK         0.0784 
     96 H96        24.7540    2.7498   -1.3097 H         1 UNK         0.0793 
     97 H97        23.4713    1.5887   -0.9968 H         1 UNK         0.0793 
     98 H98        24.9221    1.6044    0.0083 H         1 UNK         0.0793 
     99 H99        24.4334   -0.7397   -0.6673 H         1 UNK         0.3024 
    100 H100       25.0609   -2.9251   -0.3351 H         1 UNK         0.1171 
    101 H101       23.5951   -4.6377   -1.4659 H         1 UNK         0.0786 
    102 H102       22.9786   -3.0177   -1.7465 H         1 UNK         0.0786 
    103 H103       23.8597   -3.8520   -3.0203 H         1 UNK         0.0786 
    104 H104       26.7635   -3.7736   -2.5263 H         1 UNK         0.2977 
    105 H105       26.8679    1.1325   -5.5807 H         1 UNK         0.3127 
    106 H106       29.1805    2.1231   -6.8720 H         1 UNK         0.0770 
    107 H107       26.9478    3.6760   -5.4598 H         1 UNK         0.0814 
    108 H108       28.5797    4.2530   -5.7689 H         1 UNK         0.0814 
    109 H109       28.3225    2.9204   -4.6565 H         1 UNK         0.0814 
    110 H110       25.8800    2.0754   -8.0072 H         1 UNK         0.2983 
    111 H111       26.2853    4.1656  -10.0492 H         1 UNK         0.0947 
    112 H112       23.9553    3.5785  -10.6776 H         1 UNK         0.0806 
    113 H113       24.0585    3.8959   -8.9536 H         1 UNK         0.0806 
    114 H114       23.9557    2.2364   -9.5419 H         1 UNK         0.0806 
    115 H115       27.0071    0.7994   -9.7138 H         1 UNK         0.3000 
    116 H116       26.8000    0.2615  -12.6441 H         1 UNK         0.0850 
    117 H117       26.8629   -2.1160  -11.9627 H         1 UNK         0.0810 
    118 H118       25.5440   -1.2877  -11.1500 H         1 UNK         0.0810 
    119 H119       27.0245   -1.6664  -10.2713 H         1 UNK         0.0810 
    120 H120       29.0671    0.1906   -9.8289 H         1 UNK         0.3040 
    121 H121       31.3735    0.2359  -11.6470 H         1 UNK         0.0766 
    122 H122       30.8728   -2.0299   -9.6239 H         1 UNK         0.0812 
    123 H123       32.3906   -1.7659  -10.4706 H         1 UNK         0.0812 
    124 H124       30.9533   -2.2117  -11.3726 H         1 UNK         0.0812 
    125 H125       33.3998    0.5234  -10.3947 H         1 UNK         0.3205 
    126 H126       33.1284    2.5750   -8.3831 H         1 UNK         0.0754 
    127 H127       34.9863    2.5900  -10.0440 H         1 UNK         0.0769 
    128 H128       35.5956    1.0600   -9.4104 H         1 UNK         0.0769 
    129 H129       35.6307    2.5064   -8.4126 H         1 UNK         0.0769 
    130 H130       33.5783    2.4854   -6.1981 H         1 UNK         0.2981 
    131 H131       33.1254    0.0075   -4.8401 H         1 UNK         0.0541 
    132 H132       34.4994   -1.1496   -3.3490 H         1 UNK         0.3459 
    133 H133       36.2353   -1.0285   -3.4797 H         1 UNK         0.3459 
    134 H134       33.9405    2.7146   -3.6607 H         1 UNK         0.0612 
    135 H135       33.2990    1.3665   -2.7589 H         1 UNK         0.0612 
    136 H136       30.9020    1.4462   -1.9851 H         1 UNK         0.0624 
    137 H137       29.5417    1.6819   -3.0523 H         1 UNK         0.0624 
@<TRIPOS>BOND
     1    1    2 1    
     2    1   72 1    
     3    1   73 1    
     4    1   74 1    
     5    2    3 2    
     6    2    4 am   BACKBONE|DICT|INTERRES
     7    4    5 1    
     8    4   75 1    
     9    5    6 1    
    10    5   35 1    
    11    5   76 1    
    12    6    7 1    
    13    6   77 1    
    14    6   78 1    
    15    7    8 1    
    16    8    9 1    
    17    8   79 1    
    18    8   80 1    
    19    9   10 ar   
    20    9   14 ar   
    21   10   11 ar   
    22   10   81 1    
    23   11   12 ar   
    24   11   71 1    
    25   12   13 ar   
    26   12   82 1    
    27   13   14 ar   
    28   13   15 1    
    29   14   83 1    
    30   15   16 1    
    31   15   84 1    
    32   15   85 1    
    33   16   17 1    
    34   17   18 1    
    35   17   86 1    
    36   17   87 1    
    37   18   19 1    
    38   18   37 1    
    39   18   88 1    
    40   19   20 am   BACKBONE|DICT|INTERRES
    41   19   89 1    
    42   20   21 2    
    43   20   22 1    
    44   22   23 1    
    45   22   24 1    
    46   22   90 1    
    47   23   91 1    
    48   23   92 1    
    49   23   93 1    
    50   24   25 am   BACKBONE|DICT|INTERRES
    51   24   94 1    
    52   25   26 2    
    53   25   27 1    
    54   27   28 1    
    55   27   29 1    
    56   27   95 1    
    57   28   96 1    
    58   28   97 1    
    59   28   98 1    
    60   29   30 am   BACKBONE|DICT|INTERRES
    61   29   99 1    
    62   30   31 2    
    63   30   32 1    
    64   32   33 1    
    65   32   34 1    
    66   32  100 1    
    67   33  101 1    
    68   33  102 1    
    69   33  103 1    
    70   34   35 am   BACKBONE|DICT|INTERRES
    71   34  104 1    
    72   35   36 2    
    73   37   38 2    
    74   37   39 am   BACKBONE|DICT|INTERRES
    75   39   40 1    
    76   39  105 1    
    77   40   41 1    
    78   40   42 1    
    79   40  106 1    
    80   41  107 1    
    81   41  108 1    
    82   41  109 1    
    83   42   43 2    
    84   42   44 am   BACKBONE|DICT|INTERRES
    85   44   45 1    
    86   44  110 1    
    87   45   46 1    
    88   45   47 1    
    89   45  111 1    
    90   46  112 1    
    91   46  113 1    
    92   46  114 1    
    93   47   48 2    
    94   47   49 am   BACKBONE|DICT|INTERRES
    95   49   50 1    
    96   49  115 1    
    97   50   51 1    
    98   50   52 1    
    99   50  116 1    
   100   51  117 1    
   101   51  118 1    
   102   51  119 1    
   103   52   53 2    
   104   52   54 am   BACKBONE|DICT|INTERRES
   105   54   55 1    
   106   54  120 1    
   107   55   56 1    
   108   55   57 1    
   109   55  121 1    
   110   56  122 1    
   111   56  123 1    
   112   56  124 1    
   113   57   58 2    
   114   57   59 am   BACKBONE|DICT|INTERRES
   115   59   60 1    
   116   59  125 1    
   117   60   61 1    
   118   60   62 1    
   119   60  126 1    
   120   61  127 1    
   121   61  128 1    
   122   61  129 1    
   123   62   63 2    
   124   62   64 am   BACKBONE|DICT|INTERRES
   125   64   65 1    
   126   64  130 1    
   127   65   66 1    
   128   65   69 1    
   129   65  131 1    
   130   66   67 am   BACKBONE|DICT|INTERRES
   131   66   68 2    
   132   67  132 1    
   133   67  133 1    
   134   69   70 1    
   135   69  134 1    
   136   69  135 1    
   137   70   71 1    
   138   71  136 1    
   139   71  137 1    
@<TRIPOS>SUBSTRUCTURE
     1 UNK         1 GROUP             0       ****    0 ROOT    
