@<TRIPOS>MOLECULE
3R137
137   139    1
SMALL
USER_CHARGES


@<TRIPOS>ATOM
      1 CA         30.4441    1.1393    0.0876 C.3       0 UNK        -0.2020 
      2 C          29.6101   -0.1326    0.0589 C.2       0 UNK         0.4855 
      3 O          29.1963   -0.6147    1.1133 O.2       0 UNK        -0.5197 
      4 N          29.3536   -0.6638   -1.1445 N.am      1 UNK        -0.4892 
      5 CA         28.6048   -1.9004   -1.4285 C.3       1 UNK         0.0835 
      6 C6         29.2230   -3.1853   -0.8026 C.3       12 UNK        -0.0855 
      7 S7         31.0139   -3.3846   -1.1155 S.3       12 UNK        -0.2931 
      8 C8         31.1152   -4.9615   -2.0280 C.3       12 UNK         0.0378 
      9 C9         31.2008   -4.7430   -3.5318 C.ar      12 UNK        -0.0802 
     10 C10        32.3563   -4.1761   -4.0807 C.ar      12 UNK        -0.0944 
     11 C11        32.4558   -3.9583   -5.4569 C.ar      12 UNK        -0.0787 
     12 C12        31.4032   -4.3456   -6.2903 C.ar      12 UNK        -0.0862 
     13 C13        30.2421   -4.9152   -5.7573 C.ar      12 UNK        -0.0733 
     14 C14        30.1464   -5.1140   -4.3748 C.ar      12 UNK        -0.0832 
     15 C15        29.0912   -5.2914   -6.6871 C.3       12 UNK         0.0240 
     16 S16        27.5664   -4.3326   -6.3801 S.3       12 UNK        -0.2522 
     17 C17        28.1784   -2.6167   -6.2849 C.3       12 UNK        -0.0967 
     18 CA         27.5297   -1.6252   -7.2771 C.3       5 UNK         0.0660 
     19 N          26.0643   -1.6637   -7.2195 N.am      5 UNK        -0.4015 
     20 C          25.2078   -0.8149   -7.8075 C.2       4 UNK         0.4946 
     21 O          25.5497    0.0609   -8.6027 O.2       4 UNK        -0.5353 
     22 CA         23.7285   -0.8937   -7.3845 C.3       4 UNK         0.0277 
     23 CB         22.9143   -1.6399   -8.4531 C.3       4 UNK        -0.1981 
     24 N          23.4710   -1.4970   -6.0667 N.am      4 UNK        -0.4209 
     25 C          24.0582   -1.1693   -4.9045 C.2       3 UNK         0.4942 
     26 O          24.9543   -0.3247   -4.8070 O.2       3 UNK        -0.5208 
     27 CA         23.6009   -1.9721   -3.6703 C.3       3 UNK         0.0250 
     28 CB         23.8286   -3.4824   -3.8739 C.3       3 UNK        -0.1990 
     29 N          24.3189   -1.5691   -2.4630 N.am      3 UNK        -0.4232 
     30 C          24.1686   -0.4248   -1.7891 C.2       2 UNK         0.4993 
     31 O          23.2720    0.3896   -2.0147 O.2       2 UNK        -0.5286 
     32 CA         25.2018   -0.1215   -0.6862 C.3       2 UNK         0.0209 
     33 CB         24.7331   -0.6699    0.6760 C.3       2 UNK        -0.1931 
     34 N          26.5840   -0.5422   -0.9872 N.am      2 UNK        -0.4546 
     35 C          27.0930   -1.7788   -1.1212 C.2       1 UNK         0.5154 
     36 O          26.4084   -2.8009   -1.0508 O.2       1 UNK        -0.5181 
     37 C          28.1193   -0.2273   -6.9898 C.2       5 UNK         0.5014 
     38 O          29.1237    0.1380   -7.6015 O.2       5 UNK        -0.5248 
     39 N          27.4868    0.5341   -6.0841 N.am      6 UNK        -0.4434 
     40 CA         27.8783    1.8985   -5.7234 C.3       6 UNK         0.0363 
     41 CB         27.0503    2.3538   -4.5118 C.3       6 UNK        -0.1936 
     42 C          27.7605    2.9102   -6.8790 C.2       6 UNK         0.5081 
     43 O          28.4442    3.9329   -6.8426 O.2       6 UNK        -0.5248 
     44 N          26.9228    2.6095   -7.8802 N.am      7 UNK        -0.4718 
     45 CA         26.7693    3.3957   -9.1033 C.3       7 UNK         0.0273 
     46 CB         25.2731    3.6367   -9.3656 C.3       7 UNK        -0.1935 
     47 C          27.4177    2.6863  -10.3010 C.2       7 UNK         0.5018 
     48 O          28.1179    3.3365  -11.0769 O.2       7 UNK        -0.5186 
     49 N          27.1631    1.3773  -10.4421 N.am      8 UNK        -0.4240 
     50 CA         27.5727    0.5672  -11.5907 C.3       8 UNK         0.0235 
     51 CB         26.7748   -0.7477  -11.5984 C.3       8 UNK        -0.2000 
     52 C          29.0808    0.2820  -11.6404 C.2       8 UNK         0.4941 
     53 O          29.6746    0.3845  -12.7147 O.2       8 UNK        -0.5273 
     54 N          29.6649   -0.0831  -10.4922 N.am      9 UNK        -0.4262 
     55 CA         31.0829   -0.4312  -10.3563 C.3       9 UNK         0.0264 
     56 CB         31.1899   -1.7659   -9.5981 C.3       9 UNK        -0.1955 
     57 C          31.8902    0.6687   -9.6439 C.2       9 UNK         0.5031 
     58 O          33.1197    0.6350   -9.7035 O.2       9 UNK        -0.5390 
     59 N          31.1917    1.6105   -8.9909 N.am      10 UNK        -0.4204 
     60 CA         31.7046    2.6802   -8.1284 C.3       10 UNK         0.0237 
     61 CB         32.6081    3.6586   -8.9100 C.3       10 UNK        -0.1985 
     62 C          32.3548    2.1340   -6.8415 C.2       10 UNK         0.4970 
     63 O          33.3618    2.6773   -6.3828 O.2       10 UNK        -0.4914 
     64 N          31.7585    1.0778   -6.2771 N.am      11 UNK        -0.4285 
     65 CA         32.2098    0.4080   -5.0537 C.3       11 UNK         0.1007 
     66 C          30.9969   -0.1995   -4.3150 C.2       11 UNK         0.5703 
     67 N          30.7353   -1.4850   -4.4682 N.am      11 UNK        -0.7361 
     68 O          30.3030    0.4889   -3.5707 O.2       11 UNK        -0.4986 
     69 C69        33.4248   -0.5515   -5.2594 C.3       12 UNK        -0.0947 
     70 S70        33.3220   -1.6450   -6.7213 S.3       12 UNK        -0.2240 
     71 C71        33.6913   -3.2979   -6.0491 C.3       12 UNK         0.0194 
     72 H72        30.7197    1.4689   -0.9143 H         1 UNK         0.0906 
     73 H73        29.8877    1.9435    0.5681 H         1 UNK         0.0906 
     74 H74        31.3605    0.9728    0.6531 H         1 UNK         0.0906 
     75 H75        29.7225   -0.1944   -1.9714 H         1 UNK         0.3140 
     76 H76        28.6506   -2.0244   -2.5101 H         1 UNK         0.1085 
     77 H77        29.0762   -3.1856    0.2789 H         1 UNK         0.0836 
     78 H78        28.6981   -4.0684   -1.1703 H         1 UNK         0.0836 
     79 H79        30.2797   -5.6127   -1.7678 H         1 UNK         0.0731 
     80 H80        32.0136   -5.4881   -1.7029 H         1 UNK         0.0731 
     81 H81        33.1675   -3.8827   -3.4281 H         1 UNK         0.1312 
     82 H82        31.4826   -4.1782   -7.3562 H         1 UNK         0.1406 
     83 H83        29.2477   -5.5498   -3.9596 H         1 UNK         0.1631 
     84 H84        28.8696   -6.3529   -6.5697 H         1 UNK         0.0717 
     85 H85        29.3786   -5.1543   -7.7308 H         1 UNK         0.0717 
     86 H86        28.0263   -2.2881   -5.2547 H         1 UNK         0.0934 
     87 H87        29.2552   -2.6074   -6.4496 H         1 UNK         0.0934 
     88 H88        27.8178   -1.9051   -8.2919 H         1 UNK         0.0739 
     89 H89        25.6788   -2.3569   -6.5960 H         1 UNK         0.3093 
     90 H90        23.3652    0.1347   -7.3359 H         1 UNK         0.0818 
     91 H91        21.8453   -1.5936   -8.2445 H         1 UNK         0.0819 
     92 H92        23.0671   -1.1992   -9.4397 H         1 UNK         0.0819 
     93 H93        23.2005   -2.6905   -8.5183 H         1 UNK         0.0819 
     94 H94        22.7543   -2.2085   -6.0462 H         1 UNK         0.3041 
     95 H95        22.5358   -1.7858   -3.5188 H         1 UNK         0.0784 
     96 H96        23.2357   -3.8744   -4.7007 H         1 UNK         0.0793 
     97 H97        24.8754   -3.7076   -4.0848 H         1 UNK         0.0793 
     98 H98        23.5419   -4.0472   -2.9863 H         1 UNK         0.0793 
     99 H99        25.0731   -2.1764   -2.1541 H         1 UNK         0.3024 
    100 H100       25.2400    0.9661   -0.6022 H         1 UNK         0.1171 
    101 H101       23.7554   -0.2657    0.9417 H         1 UNK         0.0786 
    102 H102       24.6421   -1.7565    0.6705 H         1 UNK         0.0786 
    103 H103       25.4249   -0.3954    1.4724 H         1 UNK         0.0786 
    104 H104       27.2429    0.2162   -1.0980 H         1 UNK         0.2977 
    105 H105       26.6476    0.1729   -5.6349 H         1 UNK         0.3127 
    106 H106       28.9283    1.8766   -5.4276 H         1 UNK         0.0770 
    107 H107       25.9832    2.3717   -4.7374 H         1 UNK         0.0814 
    108 H108       27.3369    3.3580   -4.1965 H         1 UNK         0.0814 
    109 H109       27.2015    1.6909   -3.6595 H         1 UNK         0.0814 
    110 H110       26.4172    1.7308   -7.8437 H         1 UNK         0.2983 
    111 H111       27.2522    4.3697   -8.9963 H         1 UNK         0.0947 
    112 H112       25.1245    4.2121  -10.2804 H         1 UNK         0.0806 
    113 H113       24.8166    4.1998   -8.5515 H         1 UNK         0.0806 
    114 H114       24.7221    2.7014   -9.4739 H         1 UNK         0.0806 
    115 H115       26.5554    0.9201   -9.7624 H         1 UNK         0.3000 
    116 H116       27.3142    1.1207  -12.4963 H         1 UNK         0.0850 
    117 H117       27.0369   -1.3593  -12.4628 H         1 UNK         0.0810 
    118 H118       25.7022   -0.5591  -11.6482 H         1 UNK         0.0810 
    119 H119       26.9659   -1.3442  -10.7057 H         1 UNK         0.0810 
    120 H120       29.1134   -0.1182   -9.6428 H         1 UNK         0.3040 
    121 H121       31.5349   -0.5717  -11.3404 H         1 UNK         0.0766 
    122 H122       30.8127   -1.6874   -8.5782 H         1 UNK         0.0812 
    123 H123       32.2283   -2.0935   -9.5365 H         1 UNK         0.0812 
    124 H124       30.6327   -2.5555  -10.1021 H         1 UNK         0.0812 
    125 H125       30.1891    1.4815   -8.9596 H         1 UNK         0.3205 
    126 H126       30.8310    3.2444   -7.8020 H         1 UNK         0.0754 
    127 H127       32.8532    4.5309   -8.3030 H         1 UNK         0.0769 
    128 H128       32.1132    4.0206   -9.8111 H         1 UNK         0.0769 
    129 H129       33.5502    3.1963   -9.2058 H         1 UNK         0.0769 
    130 H130       30.9252    0.6896   -6.7064 H         1 UNK         0.2981 
    131 H131       32.5592    1.1897   -4.3760 H         1 UNK         0.0541 
    132 H132       31.3438   -2.0623   -5.0315 H         1 UNK         0.3459 
    133 H133       29.9912   -1.9117   -3.9487 H         1 UNK         0.3459 
    134 H134       34.3268    0.0486   -5.3859 H         1 UNK         0.0612 
    135 H135       33.5993   -1.1461   -4.3610 H         1 UNK         0.0612 
    136 H136       34.0701   -3.9238   -6.8581 H         1 UNK         0.0624 
    137 H137       34.4962   -3.2266   -5.3159 H         1 UNK         0.0624 
@<TRIPOS>BOND
     1    1    2 1    
     2    1   72 1    
     3    1   73 1    
     4    1   74 1    
     5    2    3 2    
     6    2    4 am   BACKBONE|DICT|INTERRES
     7    4    5 1    
     8    4   75 1    
     9    5    6 1    
    10    5   35 1    
    11    5   76 1    
    12    6    7 1    
    13    6   77 1    
    14    6   78 1    
    15    7    8 1    
    16    8    9 1    
    17    8   79 1    
    18    8   80 1    
    19    9   10 ar   
    20    9   14 ar   
    21   10   11 ar   
    22   10   81 1    
    23   11   12 ar   
    24   11   71 1    
    25   12   13 ar   
    26   12   82 1    
    27   13   14 ar   
    28   13   15 1    
    29   14   83 1    
    30   15   16 1    
    31   15   84 1    
    32   15   85 1    
    33   16   17 1    
    34   17   18 1    
    35   17   86 1    
    36   17   87 1    
    37   18   19 1    
    38   18   37 1    
    39   18   88 1    
    40   19   20 am   BACKBONE|DICT|INTERRES
    41   19   89 1    
    42   20   21 2    
    43   20   22 1    
    44   22   23 1    
    45   22   24 1    
    46   22   90 1    
    47   23   91 1    
    48   23   92 1    
    49   23   93 1    
    50   24   25 am   BACKBONE|DICT|INTERRES
    51   24   94 1    
    52   25   26 2    
    53   25   27 1    
    54   27   28 1    
    55   27   29 1    
    56   27   95 1    
    57   28   96 1    
    58   28   97 1    
    59   28   98 1    
    60   29   30 am   BACKBONE|DICT|INTERRES
    61   29   99 1    
    62   30   31 2    
    63   30   32 1    
    64   32   33 1    
    65   32   34 1    
    66   32  100 1    
    67   33  101 1    
    68   33  102 1    
    69   33  103 1    
    70   34   35 am   BACKBONE|DICT|INTERRES
    71   34  104 1    
    72   35   36 2    
    73   37   38 2    
    74   37   39 am   BACKBONE|DICT|INTERRES
    75   39   40 1    
    76   39  105 1    
    77   40   41 1    
    78   40   42 1    
    79   40  106 1    
    80   41  107 1    
    81   41  108 1    
    82   41  109 1    
    83   42   43 2    
    84   42   44 am   BACKBONE|DICT|INTERRES
    85   44   45 1    
    86   44  110 1    
    87   45   46 1    
    88   45   47 1    
    89   45  111 1    
    90   46  112 1    
    91   46  113 1    
    92   46  114 1    
    93   47   48 2    
    94   47   49 am   BACKBONE|DICT|INTERRES
    95   49   50 1    
    96   49  115 1    
    97   50   51 1    
    98   50   52 1    
    99   50  116 1    
   100   51  117 1    
   101   51  118 1    
   102   51  119 1    
   103   52   53 2    
   104   52   54 am   BACKBONE|DICT|INTERRES
   105   54   55 1    
   106   54  120 1    
   107   55   56 1    
   108   55   57 1    
   109   55  121 1    
   110   56  122 1    
   111   56  123 1    
   112   56  124 1    
   113   57   58 2    
   114   57   59 am   BACKBONE|DICT|INTERRES
   115   59   60 1    
   116   59  125 1    
   117   60   61 1    
   118   60   62 1    
   119   60  126 1    
   120   61  127 1    
   121   61  128 1    
   122   61  129 1    
   123   62   63 2    
   124   62   64 am   BACKBONE|DICT|INTERRES
   125   64   65 1    
   126   64  130 1    
   127   65   66 1    
   128   65   69 1    
   129   65  131 1    
   130   66   67 am   BACKBONE|DICT|INTERRES
   131   66   68 2    
   132   67  132 1    
   133   67  133 1    
   134   69   70 1    
   135   69  134 1    
   136   69  135 1    
   137   70   71 1    
   138   71  136 1    
   139   71  137 1    
@<TRIPOS>SUBSTRUCTURE
     1 UNK         1 GROUP             0       ****    0 ROOT    
