@<TRIPOS>MOLECULE
3R137
137   139    1
SMALL
USER_CHARGES


@<TRIPOS>ATOM
      1 CA         24.9564   -4.3207   -4.1948 C.3       0 UNK        -0.2020 
      2 C          25.3889   -5.0505   -2.9324 C.2       0 UNK         0.4855 
      3 O          24.9545   -6.1784   -2.6988 O.2       0 UNK        -0.5197 
      4 N          26.2268   -4.4076   -2.1132 N.am      1 UNK        -0.4892 
      5 CA         26.7661   -4.9371   -0.8557 C.3       1 UNK         0.0835 
      6 C6         28.3144   -5.0150   -0.8830 C.3       12 UNK        -0.0855 
      7 S7         28.9064   -6.2906   -2.0414 S.3       12 UNK        -0.2931 
      8 C8         30.4631   -5.5518   -2.6343 C.3       12 UNK         0.0378 
      9 C9         30.2695   -4.4875   -3.7104 C.ar      12 UNK        -0.0802 
     10 C10        30.9510   -3.2697   -3.6198 C.ar      12 UNK        -0.0944 
     11 C11        30.8761   -2.3338   -4.6560 C.ar      12 UNK        -0.0787 
     12 C12        30.1068   -2.6170   -5.7873 C.ar      12 UNK        -0.0862 
     13 C13        29.3873   -3.8129   -5.8743 C.ar      12 UNK        -0.0733 
     14 C14        29.4774   -4.7444   -4.8349 C.ar      12 UNK        -0.0832 
     15 C15        28.5417   -4.1253   -7.1012 C.3       12 UNK         0.0240 
     16 S16        26.9750   -3.1941   -7.1084 S.3       12 UNK        -0.2522 
     17 C17        27.4492   -1.6712   -7.9932 C.3       12 UNK        -0.0967 
     18 CA         27.1056   -0.3656   -7.2273 C.3       5 UNK         0.0660 
     19 N          27.6742   -0.3358   -5.8746 N.am      5 UNK        -0.4015 
     20 C          27.2636    0.4658   -4.8845 C.2       4 UNK         0.4946 
     21 O          26.3343    1.2714   -4.9952 O.2       4 UNK        -0.5353 
     22 CA         28.0507    0.3990   -3.5669 C.3       4 UNK         0.0277 
     23 CB         29.1059    1.5163   -3.5215 C.3       4 UNK        -0.1981 
     24 N          27.1485    0.5475   -2.4253 N.am      4 UNK        -0.4209 
     25 C          26.3192   -0.4138   -2.0082 C.2       3 UNK         0.4942 
     26 O          26.3213   -1.5650   -2.4592 O.2       3 UNK        -0.5208 
     27 CA         25.3113   -0.0244   -0.9184 C.3       3 UNK         0.0250 
     28 CB         24.1534    0.8074   -1.4970 C.3       3 UNK        -0.1990 
     29 N          24.7905   -1.2623   -0.3603 N.am      3 UNK        -0.4232 
     30 C          24.4757   -1.5063    0.9145 C.2       2 UNK         0.4993 
     31 O          24.4114   -0.6421    1.7896 O.2       2 UNK        -0.5286 
     32 CA         24.2188   -2.9831    1.2735 C.3       2 UNK         0.0209 
     33 CB         22.7117   -3.2866    1.2677 C.3       2 UNK        -0.1931 
     34 N          24.9052   -3.9140    0.3654 N.am      2 UNK        -0.4546 
     35 C          26.2373   -4.0660    0.2985 C.2       1 UNK         0.5154 
     36 O          27.0198   -3.5098    1.0717 O.2       1 UNK        -0.5181 
     37 C          27.5383    0.8820   -8.0296 C.2       5 UNK         0.5014 
     38 O          28.3229    0.7600   -8.9725 O.2       5 UNK        -0.5248 
     39 N          27.0466    2.0631   -7.6322 N.am      6 UNK        -0.4434 
     40 CA         27.3737    3.3776   -8.2027 C.3       6 UNK         0.0363 
     41 CB         26.6425    4.4670   -7.4029 C.3       6 UNK        -0.1936 
     42 C          27.0736    3.5220   -9.7059 C.2       6 UNK         0.5081 
     43 O          27.7395    4.3041  -10.3837 O.2       6 UNK        -0.5248 
     44 N          26.0930    2.7571  -10.2014 N.am      7 UNK        -0.4718 
     45 CA         25.7217    2.6818  -11.6158 C.3       7 UNK         0.0273 
     46 CB         24.2675    2.1889  -11.7130 C.3       7 UNK        -0.1935 
     47 C          26.6527    1.7831  -12.4555 C.2       7 UNK         0.5018 
     48 O          26.5042    1.7646  -13.6787 O.2       7 UNK        -0.5186 
     49 N          27.5619    1.0394  -11.8104 N.am      8 UNK        -0.4240 
     50 CA         28.4620    0.0801  -12.4429 C.3       8 UNK         0.0235 
     51 CB         27.8924   -1.3447  -12.2734 C.3       8 UNK        -0.2000 
     52 C          29.8783    0.2688  -11.8807 C.2       8 UNK         0.4941 
     53 O          30.5459    1.2320  -12.2591 O.2       8 UNK        -0.5273 
     54 N          30.3221   -0.6588  -11.0201 N.am      9 UNK        -0.4262 
     55 CA         31.6792   -0.7371  -10.4714 C.3       9 UNK         0.0264 
     56 CB         31.8264   -2.0426   -9.6715 C.3       9 UNK        -0.1955 
     57 C          32.1015    0.4627   -9.6064 C.2       9 UNK         0.5031 
     58 O          33.2828    0.8122   -9.6191 O.2       9 UNK        -0.5390 
     59 N          31.1509    1.0466   -8.8615 N.am      10 UNK        -0.4204 
     60 CA         31.2477    2.2075   -7.9605 C.3       10 UNK         0.0237 
     61 CB         31.5228    3.4934   -8.7613 C.3       10 UNK        -0.1985 
     62 C          32.2104    2.0913   -6.7603 C.2       10 UNK         0.4970 
     63 O          31.8860    2.6213   -5.6973 O.2       10 UNK        -0.4914 
     64 N          33.3481    1.4116   -6.9337 N.am      11 UNK        -0.4285 
     65 CA         34.4436    1.2484   -5.9645 C.3       11 UNK         0.1007 
     66 C          35.1674    2.5913   -5.6329 C.2       11 UNK         0.5703 
     67 N          35.9655    2.6444   -4.5740 N.am      11 UNK        -0.7361 
     68 O          35.0601    3.5804   -6.3568 O.2       11 UNK        -0.4986 
     69 C69        34.0311    0.4295   -4.7041 C.3       12 UNK        -0.0947 
     70 S70        33.3587   -1.2188   -5.1054 S.3       12 UNK        -0.2240 
     71 C71        31.6386   -1.0235   -4.5562 C.3       12 UNK         0.0194 
     72 H72        23.8849   -4.1256   -4.1703 H         1 UNK         0.0906 
     73 H73        25.4736   -3.3683   -4.3124 H         1 UNK         0.0906 
     74 H74        25.1737   -4.9293   -5.0721 H         1 UNK         0.0906 
     75 H75        26.4883   -3.4468   -2.3303 H         1 UNK         0.3140 
     76 H76        26.3857   -5.9433   -0.6658 H         1 UNK         0.1085 
     77 H77        28.7402   -4.0450   -1.1480 H         1 UNK         0.0836 
     78 H78        28.7107   -5.2680    0.1024 H         1 UNK         0.0836 
     79 H79        31.0149   -5.1529   -1.7815 H         1 UNK         0.0731 
     80 H80        31.0829   -6.3464   -3.0518 H         1 UNK         0.0731 
     81 H81        31.5706   -3.0607   -2.7583 H         1 UNK         0.1312 
     82 H82        30.0802   -1.9081   -6.6014 H         1 UNK         0.1406 
     83 H83        28.9482   -5.6848   -4.9087 H         1 UNK         0.1631 
     84 H84        28.3009   -5.1891   -7.1280 H         1 UNK         0.0717 
     85 H85        29.1102   -3.9300   -8.0114 H         1 UNK         0.0717 
     86 H86        28.5095   -1.7078   -8.2440 H         1 UNK         0.0934 
     87 H87        26.9227   -1.6834   -8.9491 H         1 UNK         0.0934 
     88 H88        26.0180   -0.3239   -7.1336 H         1 UNK         0.0739 
     89 H89        28.4130   -0.9975   -5.6905 H         1 UNK         0.3093 
     90 H90        28.5556   -0.5676   -3.4970 H         1 UNK         0.0818 
     91 H91        29.7299    1.4377   -2.6311 H         1 UNK         0.0819 
     92 H92        29.7680    1.4707   -4.3858 H         1 UNK         0.0819 
     93 H93        28.6471    2.5060   -3.5246 H         1 UNK         0.0819 
     94 H94        27.0576    1.4754   -2.0378 H         1 UNK         0.3041 
     95 H95        25.8330    0.5426   -0.1443 H         1 UNK         0.0784 
     96 H96        24.5143    1.7458   -1.9198 H         1 UNK         0.0793 
     97 H97        23.6312    0.2716   -2.2909 H         1 UNK         0.0793 
     98 H98        23.4237    1.0584   -0.7269 H         1 UNK         0.0793 
     99 H99        24.8714   -2.0481   -0.9926 H         1 UNK         0.3024 
    100 H100       24.6023   -3.1440    2.2838 H         1 UNK         0.1171 
    101 H101       22.1786   -2.6250    1.9522 H         1 UNK         0.0786 
    102 H102       22.2750   -3.1510    0.2774 H         1 UNK         0.0786 
    103 H103       22.5113   -4.3095    1.5872 H         1 UNK         0.0786 
    104 H104       24.3327   -4.4092   -0.3043 H         1 UNK         0.2977 
    105 H105       26.4752    2.0585   -6.7908 H         1 UNK         0.3127 
    106 H106       28.4450    3.5354   -8.0790 H         1 UNK         0.0770 
    107 H107       25.5595    4.3513   -7.4612 H         1 UNK         0.0814 
    108 H108       26.8857    5.4607   -7.7821 H         1 UNK         0.0814 
    109 H109       26.9268    4.4452   -6.3506 H         1 UNK         0.0814 
    110 H110       25.5947    2.1512   -9.5657 H         1 UNK         0.2983 
    111 H111       25.7714    3.6849  -12.0455 H         1 UNK         0.0947 
    112 H112       23.9310    2.1626  -12.7505 H         1 UNK         0.0806 
    113 H113       23.5875    2.8478  -11.1726 H         1 UNK         0.0806 
    114 H114       24.1542    1.1821  -11.3090 H         1 UNK         0.0806 
    115 H115       27.6729    1.1485  -10.8067 H         1 UNK         0.3000 
    116 H116       28.5379    0.2840  -13.5132 H         1 UNK         0.0850 
    117 H117       28.5617   -2.0930  -12.7006 H         1 UNK         0.0810 
    118 H118       26.9376   -1.4429  -12.7903 H         1 UNK         0.0810 
    119 H119       27.7228   -1.6003  -11.2276 H         1 UNK         0.0810 
    120 H120       29.6915   -1.4059  -10.7712 H         1 UNK         0.3040 
    121 H121       32.3676   -0.7790  -11.3181 H         1 UNK         0.0766 
    122 H122       32.8333   -2.1392   -9.2624 H         1 UNK         0.0812 
    123 H123       31.6504   -2.9162  -10.2993 H         1 UNK         0.0812 
    124 H124       31.1311   -2.0851   -8.8330 H         1 UNK         0.0812 
    125 H125       30.2022    0.6947   -8.9731 H         1 UNK         0.3205 
    126 H126       30.2560    2.3013   -7.5198 H         1 UNK         0.0754 
    127 H127       31.5070    4.3701   -8.1123 H         1 UNK         0.0769 
    128 H128       30.7678    3.6466   -9.5332 H         1 UNK         0.0769 
    129 H129       32.4987    3.4657   -9.2474 H         1 UNK         0.0769 
    130 H130       33.5346    1.0755   -7.8764 H         1 UNK         0.2981 
    131 H131       35.1941    0.6635   -6.4969 H         1 UNK         0.0541 
    132 H132       36.0943    1.8439   -3.9758 H         1 UNK         0.3459 
    133 H133       36.4497    3.5049   -4.3708 H         1 UNK         0.3459 
    134 H134       33.3167    0.9895   -4.0987 H         1 UNK         0.0612 
    135 H135       34.8945    0.2546   -4.0613 H         1 UNK         0.0612 
    136 H136       31.1582   -0.2584   -5.1658 H         1 UNK         0.0624 
    137 H137       31.6197   -0.6631   -3.5264 H         1 UNK         0.0624 
@<TRIPOS>BOND
     1    1    2 1    
     2    1   72 1    
     3    1   73 1    
     4    1   74 1    
     5    2    3 2    
     6    2    4 am   BACKBONE|DICT|INTERRES
     7    4    5 1    
     8    4   75 1    
     9    5    6 1    
    10    5   35 1    
    11    5   76 1    
    12    6    7 1    
    13    6   77 1    
    14    6   78 1    
    15    7    8 1    
    16    8    9 1    
    17    8   79 1    
    18    8   80 1    
    19    9   10 ar   
    20    9   14 ar   
    21   10   11 ar   
    22   10   81 1    
    23   11   12 ar   
    24   11   71 1    
    25   12   13 ar   
    26   12   82 1    
    27   13   14 ar   
    28   13   15 1    
    29   14   83 1    
    30   15   16 1    
    31   15   84 1    
    32   15   85 1    
    33   16   17 1    
    34   17   18 1    
    35   17   86 1    
    36   17   87 1    
    37   18   19 1    
    38   18   37 1    
    39   18   88 1    
    40   19   20 am   BACKBONE|DICT|INTERRES
    41   19   89 1    
    42   20   21 2    
    43   20   22 1    
    44   22   23 1    
    45   22   24 1    
    46   22   90 1    
    47   23   91 1    
    48   23   92 1    
    49   23   93 1    
    50   24   25 am   BACKBONE|DICT|INTERRES
    51   24   94 1    
    52   25   26 2    
    53   25   27 1    
    54   27   28 1    
    55   27   29 1    
    56   27   95 1    
    57   28   96 1    
    58   28   97 1    
    59   28   98 1    
    60   29   30 am   BACKBONE|DICT|INTERRES
    61   29   99 1    
    62   30   31 2    
    63   30   32 1    
    64   32   33 1    
    65   32   34 1    
    66   32  100 1    
    67   33  101 1    
    68   33  102 1    
    69   33  103 1    
    70   34   35 am   BACKBONE|DICT|INTERRES
    71   34  104 1    
    72   35   36 2    
    73   37   38 2    
    74   37   39 am   BACKBONE|DICT|INTERRES
    75   39   40 1    
    76   39  105 1    
    77   40   41 1    
    78   40   42 1    
    79   40  106 1    
    80   41  107 1    
    81   41  108 1    
    82   41  109 1    
    83   42   43 2    
    84   42   44 am   BACKBONE|DICT|INTERRES
    85   44   45 1    
    86   44  110 1    
    87   45   46 1    
    88   45   47 1    
    89   45  111 1    
    90   46  112 1    
    91   46  113 1    
    92   46  114 1    
    93   47   48 2    
    94   47   49 am   BACKBONE|DICT|INTERRES
    95   49   50 1    
    96   49  115 1    
    97   50   51 1    
    98   50   52 1    
    99   50  116 1    
   100   51  117 1    
   101   51  118 1    
   102   51  119 1    
   103   52   53 2    
   104   52   54 am   BACKBONE|DICT|INTERRES
   105   54   55 1    
   106   54  120 1    
   107   55   56 1    
   108   55   57 1    
   109   55  121 1    
   110   56  122 1    
   111   56  123 1    
   112   56  124 1    
   113   57   58 2    
   114   57   59 am   BACKBONE|DICT|INTERRES
   115   59   60 1    
   116   59  125 1    
   117   60   61 1    
   118   60   62 1    
   119   60  126 1    
   120   61  127 1    
   121   61  128 1    
   122   61  129 1    
   123   62   63 2    
   124   62   64 am   BACKBONE|DICT|INTERRES
   125   64   65 1    
   126   64  130 1    
   127   65   66 1    
   128   65   69 1    
   129   65  131 1    
   130   66   67 am   BACKBONE|DICT|INTERRES
   131   66   68 2    
   132   67  132 1    
   133   67  133 1    
   134   69   70 1    
   135   69  134 1    
   136   69  135 1    
   137   70   71 1    
   138   71  136 1    
   139   71  137 1    
@<TRIPOS>SUBSTRUCTURE
     1 UNK         1 GROUP             0       ****    0 ROOT    
