@<TRIPOS>MOLECULE
3R137
137   139    1
SMALL
USER_CHARGES


@<TRIPOS>ATOM
      1 CA         24.7785   -7.0717    0.6176 C.3       0 UNK        -0.2020 
      2 C          25.5802   -5.9401   -0.0071 C.2       0 UNK         0.4855 
      3 O          25.5918   -5.8038   -1.2309 O.2       0 UNK        -0.5197 
      4 N          26.2402   -5.1202    0.8240 N.am      1 UNK        -0.4892 
      5 CA         27.0811   -3.9638    0.4719 C.3       1 UNK         0.0835 
      6 C6         28.2426   -4.3269   -0.4935 C.3       12 UNK        -0.0855 
      7 S7         29.7280   -3.2930   -0.2544 S.3       12 UNK        -0.2931 
      8 C8         29.5079   -2.0087   -1.5254 C.3       12 UNK         0.0378 
      9 C9         30.1883   -2.3507   -2.8445 C.ar      12 UNK        -0.0802 
     10 C10        31.3588   -1.6859   -3.2221 C.ar      12 UNK        -0.0944 
     11 C11        31.9268   -1.9122   -4.4781 C.ar      12 UNK        -0.0787 
     12 C12        31.3070   -2.7995   -5.3619 C.ar      12 UNK        -0.0862 
     13 C13        30.1331   -3.4707   -5.0062 C.ar      12 UNK        -0.0733 
     14 C14        29.6101   -3.2714   -3.7239 C.ar      12 UNK        -0.0832 
     15 C15        29.4763   -4.3768   -6.0534 C.3       12 UNK         0.0240 
     16 S16        27.7483   -4.9263   -5.7644 S.3       12 UNK        -0.2522 
     17 C17        26.7556   -3.4374   -5.3787 C.3       12 UNK        -0.0967 
     18 CA         26.5251   -2.4153   -6.5191 C.3       5 UNK         0.0660 
     19 N          25.3444   -1.5952   -6.2339 N.am      5 UNK        -0.4015 
     20 C          24.7868   -0.7037   -7.0651 C.2       4 UNK         0.4946 
     21 O          25.1522   -0.5194   -8.2253 O.2       4 UNK        -0.5353 
     22 CA         23.6545    0.1612   -6.4833 C.3       4 UNK         0.0277 
     23 CB         22.3009   -0.5520   -6.6297 C.3       4 UNK        -0.1981 
     24 N          23.8712    0.5221   -5.0776 N.am      4 UNK        -0.4209 
     25 C          24.8823    1.2859   -4.6356 C.2       3 UNK         0.4942 
     26 O          25.7173    1.8031   -5.3746 O.2       3 UNK        -0.5208 
     27 CA         25.0126    1.4753   -3.1144 C.3       3 UNK         0.0250 
     28 CB         24.2538    2.7329   -2.6624 C.3       3 UNK        -0.1990 
     29 N          24.5541    0.3181   -2.3384 N.am      3 UNK        -0.4232 
     30 C          25.1303   -0.8914   -2.3675 C.2       2 UNK         0.4993 
     31 O          26.1082   -1.1664   -3.0669 O.2       2 UNK        -0.5286 
     32 CA         24.4363   -1.9904   -1.5471 C.3       2 UNK         0.0209 
     33 CB         23.4069   -2.7272   -2.4202 C.3       2 UNK        -0.1931 
     34 N          25.3712   -2.9731   -0.9979 N.am      2 UNK        -0.4546 
     35 C          26.2549   -2.7505   -0.0173 C.2       1 UNK         0.5154 
     36 O          26.3959   -1.6574    0.5335 O.2       1 UNK        -0.5181 
     37 C          27.7522   -1.5104   -6.7352 C.2       5 UNK         0.5014 
     38 O          28.4210   -1.6247   -7.7632 O.2       5 UNK        -0.5248 
     39 N          27.9904   -0.5957   -5.7824 N.am      6 UNK        -0.4434 
     40 CA         29.0833    0.3760   -5.8266 C.3       6 UNK         0.0363 
     41 CB         29.1427    1.1559   -4.5045 C.3       6 UNK        -0.1936 
     42 C          28.9934    1.3285   -7.0299 C.2       6 UNK         0.5081 
     43 O          30.0085    1.5788   -7.6787 O.2       6 UNK        -0.5248 
     44 N          27.7785    1.8047   -7.3361 N.am      7 UNK        -0.4718 
     45 CA         27.4754    2.6325   -8.5051 C.3       7 UNK         0.0273 
     46 CB         26.0313    3.1494   -8.4138 C.3       7 UNK        -0.1935 
     47 C          27.7078    1.9017   -9.8379 C.2       7 UNK         0.5018 
     48 O          28.2583    2.5048  -10.7591 O.2       7 UNK        -0.5186 
     49 N          27.3115    0.6218   -9.9139 N.am      8 UNK        -0.4240 
     50 CA         27.5452   -0.2467  -11.0715 C.3       8 UNK         0.0235 
     51 CB         26.7213   -1.5373  -10.9352 C.3       8 UNK        -0.2000 
     52 C          29.0344   -0.5684  -11.2793 C.2       8 UNK         0.4941 
     53 O          29.5002   -0.5528  -12.4195 O.2       8 UNK        -0.5273 
     54 N          29.7556   -0.8346  -10.1809 N.am      9 UNK        -0.4262 
     55 CA         31.2046   -1.0539  -10.1720 C.3       9 UNK         0.0264 
     56 CB         31.6166   -1.6439   -8.8152 C.3       9 UNK        -0.1955 
     57 C          32.0168    0.2197  -10.4690 C.2       9 UNK         0.5031 
     58 O          33.1139    0.1142  -11.0191 O.2       9 UNK        -0.5390 
     59 N          31.4706    1.3834  -10.0865 N.am      10 UNK        -0.4204 
     60 CA         32.0550    2.7267  -10.1661 C.3       10 UNK         0.0237 
     61 CB         32.2946    3.1497  -11.6313 C.3       10 UNK        -0.1985 
     62 C          33.2992    2.8885   -9.2700 C.2       10 UNK         0.4970 
     63 O          34.2160    3.6355   -9.6182 O.2       10 UNK        -0.4914 
     64 N          33.3079    2.1831   -8.1325 N.am      11 UNK        -0.4285 
     65 CA         34.3534    2.2494   -7.1041 C.3       11 UNK         0.1007 
     66 C          34.2672    3.5331   -6.2304 C.2       11 UNK         0.5703 
     67 N          35.3363    3.8678   -5.5199 N.am      11 UNK        -0.7361 
     68 O          33.2484    4.2208   -6.1763 O.2       11 UNK        -0.4986 
     69 C69        34.4027    0.9467   -6.2601 C.3       12 UNK        -0.0947 
     70 S70        32.8090    0.4897   -5.5018 S.3       12 UNK        -0.2240 
     71 C71        33.1923   -1.1795   -4.8948 C.3       12 UNK         0.0194 
     72 H72        25.1363   -8.0322    0.2475 H         1 UNK         0.0906 
     73 H73        24.8561   -7.0772    1.7046 H         1 UNK         0.0906 
     74 H74        23.7259   -6.9755    0.3529 H         1 UNK         0.0906 
     75 H75        26.1536   -5.2805    1.8191 H         1 UNK         0.3140 
     76 H76        27.5265   -3.6598    1.4212 H         1 UNK         0.1085 
     77 H77        28.5617   -5.3544   -0.3116 H         1 UNK         0.0836 
     78 H78        27.9072   -4.3128   -1.5285 H         1 UNK         0.0836 
     79 H79        28.4477   -1.8238   -1.7011 H         1 UNK         0.0731 
     80 H80        29.9065   -1.0719   -1.1330 H         1 UNK         0.0731 
     81 H81        31.8162   -0.9715   -2.5512 H         1 UNK         0.1312 
     82 H82        31.7365   -2.9593   -6.3402 H         1 UNK         0.1406 
     83 H83        28.7299   -3.8090   -3.4183 H         1 UNK         0.1631 
     84 H84        29.5141   -3.8892   -7.0275 H         1 UNK         0.0717 
     85 H85        30.0916   -5.2721   -6.1504 H         1 UNK         0.0717 
     86 H86        25.7873   -3.8355   -5.0704 H         1 UNK         0.0934 
     87 H87        27.1288   -2.9421   -4.4881 H         1 UNK         0.0934 
     88 H88        26.3331   -2.9577   -7.4472 H         1 UNK         0.0739 
     89 H89        25.0009   -1.6325   -5.2857 H         1 UNK         0.3093 
     90 H90        23.6172    1.0863   -7.0622 H         1 UNK         0.0818 
     91 H91        21.4789    0.0859   -6.3042 H         1 UNK         0.0819 
     92 H92        22.1106   -0.8145   -7.6715 H         1 UNK         0.0819 
     93 H93        22.2616   -1.4745   -6.0490 H         1 UNK         0.0819 
     94 H94        23.2158    0.1568   -4.4026 H         1 UNK         0.3041 
     95 H95        26.0728    1.6203   -2.8957 H         1 UNK         0.0784 
     96 H96        24.5956    3.6119   -3.2112 H         1 UNK         0.0793 
     97 H97        23.1798    2.6416   -2.8302 H         1 UNK         0.0793 
     98 H98        24.4135    2.9338   -1.6029 H         1 UNK         0.0793 
     99 H99        23.7459    0.4624   -1.7496 H         1 UNK         0.3024 
    100 H100       23.9165   -1.5232   -0.7074 H         1 UNK         0.1171 
    101 H101       22.8654   -3.4781   -1.8442 H         1 UNK         0.0786 
    102 H102       22.6652   -2.0380   -2.8262 H         1 UNK         0.0786 
    103 H103       23.8811   -3.2327   -3.2625 H         1 UNK         0.0786 
    104 H104       25.3308   -3.9172   -1.3728 H         1 UNK         0.2977 
    105 H105       27.3867   -0.5683   -4.9704 H         1 UNK         0.3127 
    106 H106       30.0076   -0.1931   -5.9292 H         1 UNK         0.0770 
    107 H107       28.2431    1.7497   -4.3420 H         1 UNK         0.0814 
    108 H108       29.9921    1.8402   -4.4988 H         1 UNK         0.0814 
    109 H109       29.2621    0.4852   -3.6538 H         1 UNK         0.0814 
    110 H110       27.0060    1.6070   -6.7029 H         1 UNK         0.2983 
    111 H111       28.1477    3.4930   -8.4809 H         1 UNK         0.0947 
    112 H112       25.7938    3.7971   -9.2587 H         1 UNK         0.0806 
    113 H113       25.8750    3.7307   -7.5048 H         1 UNK         0.0806 
    114 H114       25.3102    2.3317   -8.4153 H         1 UNK         0.0806 
    115 H115       26.8154    0.2116   -9.1279 H         1 UNK         0.3000 
    116 H116       27.1962    0.2834  -11.9603 H         1 UNK         0.0850 
    117 H117       26.8767   -2.1932  -11.7927 H         1 UNK         0.0810 
    118 H118       25.6543   -1.3208  -10.8815 H         1 UNK         0.0810 
    119 H119       26.9922   -2.0983  -10.0402 H         1 UNK         0.0810 
    120 H120       29.2729   -0.9100   -9.2867 H         1 UNK         0.3040 
    121 H121       31.4412   -1.7843  -10.9486 H         1 UNK         0.0766 
    122 H122       31.1197   -2.5976   -8.6385 H         1 UNK         0.0812 
    123 H123       31.3618   -0.9756   -7.9916 H         1 UNK         0.0812 
    124 H124       32.6919   -1.8221   -8.7722 H         1 UNK         0.0812 
    125 H125       30.6135    1.3326   -9.5426 H         1 UNK         0.3205 
    126 H126       31.3019    3.3989   -9.7519 H         1 UNK         0.0754 
    127 H127       32.5819    4.2000  -11.6929 H         1 UNK         0.0769 
    128 H128       31.3917    3.0259  -12.2296 H         1 UNK         0.0769 
    129 H129       33.0899    2.5678  -12.0978 H         1 UNK         0.0769 
    130 H130       32.4831    1.6532   -7.8848 H         1 UNK         0.2981 
    131 H131       35.3075    2.3141   -7.6311 H         1 UNK         0.0541 
    132 H132       36.1783    3.3144   -5.5501 H         1 UNK         0.3459 
    133 H133       35.3002    4.6930   -4.9421 H         1 UNK         0.3459 
    134 H134       35.1595    1.0138   -5.4768 H         1 UNK         0.0612 
    135 H135       34.7154    0.1231   -6.9039 H         1 UNK         0.0612 
    136 H136       33.8809   -1.1086   -4.0516 H         1 UNK         0.0624 
    137 H137       33.7104   -1.7411   -5.6738 H         1 UNK         0.0624 
@<TRIPOS>BOND
     1    1    2 1    
     2    1   72 1    
     3    1   73 1    
     4    1   74 1    
     5    2    3 2    
     6    2    4 am   BACKBONE|DICT|INTERRES
     7    4    5 1    
     8    4   75 1    
     9    5    6 1    
    10    5   35 1    
    11    5   76 1    
    12    6    7 1    
    13    6   77 1    
    14    6   78 1    
    15    7    8 1    
    16    8    9 1    
    17    8   79 1    
    18    8   80 1    
    19    9   10 ar   
    20    9   14 ar   
    21   10   11 ar   
    22   10   81 1    
    23   11   12 ar   
    24   11   71 1    
    25   12   13 ar   
    26   12   82 1    
    27   13   14 ar   
    28   13   15 1    
    29   14   83 1    
    30   15   16 1    
    31   15   84 1    
    32   15   85 1    
    33   16   17 1    
    34   17   18 1    
    35   17   86 1    
    36   17   87 1    
    37   18   19 1    
    38   18   37 1    
    39   18   88 1    
    40   19   20 am   BACKBONE|DICT|INTERRES
    41   19   89 1    
    42   20   21 2    
    43   20   22 1    
    44   22   23 1    
    45   22   24 1    
    46   22   90 1    
    47   23   91 1    
    48   23   92 1    
    49   23   93 1    
    50   24   25 am   BACKBONE|DICT|INTERRES
    51   24   94 1    
    52   25   26 2    
    53   25   27 1    
    54   27   28 1    
    55   27   29 1    
    56   27   95 1    
    57   28   96 1    
    58   28   97 1    
    59   28   98 1    
    60   29   30 am   BACKBONE|DICT|INTERRES
    61   29   99 1    
    62   30   31 2    
    63   30   32 1    
    64   32   33 1    
    65   32   34 1    
    66   32  100 1    
    67   33  101 1    
    68   33  102 1    
    69   33  103 1    
    70   34   35 am   BACKBONE|DICT|INTERRES
    71   34  104 1    
    72   35   36 2    
    73   37   38 2    
    74   37   39 am   BACKBONE|DICT|INTERRES
    75   39   40 1    
    76   39  105 1    
    77   40   41 1    
    78   40   42 1    
    79   40  106 1    
    80   41  107 1    
    81   41  108 1    
    82   41  109 1    
    83   42   43 2    
    84   42   44 am   BACKBONE|DICT|INTERRES
    85   44   45 1    
    86   44  110 1    
    87   45   46 1    
    88   45   47 1    
    89   45  111 1    
    90   46  112 1    
    91   46  113 1    
    92   46  114 1    
    93   47   48 2    
    94   47   49 am   BACKBONE|DICT|INTERRES
    95   49   50 1    
    96   49  115 1    
    97   50   51 1    
    98   50   52 1    
    99   50  116 1    
   100   51  117 1    
   101   51  118 1    
   102   51  119 1    
   103   52   53 2    
   104   52   54 am   BACKBONE|DICT|INTERRES
   105   54   55 1    
   106   54  120 1    
   107   55   56 1    
   108   55   57 1    
   109   55  121 1    
   110   56  122 1    
   111   56  123 1    
   112   56  124 1    
   113   57   58 2    
   114   57   59 am   BACKBONE|DICT|INTERRES
   115   59   60 1    
   116   59  125 1    
   117   60   61 1    
   118   60   62 1    
   119   60  126 1    
   120   61  127 1    
   121   61  128 1    
   122   61  129 1    
   123   62   63 2    
   124   62   64 am   BACKBONE|DICT|INTERRES
   125   64   65 1    
   126   64  130 1    
   127   65   66 1    
   128   65   69 1    
   129   65  131 1    
   130   66   67 am   BACKBONE|DICT|INTERRES
   131   66   68 2    
   132   67  132 1    
   133   67  133 1    
   134   69   70 1    
   135   69  134 1    
   136   69  135 1    
   137   70   71 1    
   138   71  136 1    
   139   71  137 1    
@<TRIPOS>SUBSTRUCTURE
     1 UNK         1 GROUP             0       ****    0 ROOT    
