@<TRIPOS>MOLECULE
3R137
137   139    1
SMALL
USER_CHARGES


@<TRIPOS>ATOM
      1 CA         26.9313   -6.0925   -2.1374 C.3       0 UNK        -0.2020 
      2 C          26.5730   -5.2573   -0.9178 C.2       0 UNK         0.4855 
      3 O          25.6252   -5.5947   -0.2082 O.2       0 UNK        -0.5197 
      4 N          27.3199   -4.1732   -0.6618 N.am      1 UNK        -0.4892 
      5 CA         27.0740   -3.2434    0.4483 C.3       1 UNK         0.0835 
      6 C6         28.3422   -2.4384    0.8386 C.3       12 UNK        -0.0855 
      7 S7         29.0114   -1.3801   -0.4941 S.3       12 UNK        -0.2931 
      8 C8         30.5292   -2.2557   -0.9938 C.3       12 UNK         0.0378 
      9 C9         30.6093   -2.3401   -2.5091 C.ar      12 UNK        -0.0802 
     10 C10        31.2784   -1.3598   -3.2471 C.ar      12 UNK        -0.0944 
     11 C11        31.3072   -1.4199   -4.6451 C.ar      12 UNK        -0.0787 
     12 C12        30.6533   -2.4684   -5.3036 C.ar      12 UNK        -0.0862 
     13 C13        29.9865   -3.4558   -4.5722 C.ar      12 UNK        -0.0733 
     14 C14        29.9845   -3.3933   -3.1780 C.ar      12 UNK        -0.0832 
     15 C15        29.2590   -4.5953   -5.2664 C.3       12 UNK         0.0240 
     16 S16        27.4651   -4.2783   -5.3544 S.3       12 UNK        -0.2522 
     17 C17        27.2579   -3.7097   -7.0769 C.3       12 UNK        -0.0967 
     18 CA         26.5926   -2.3226   -7.2385 C.3       5 UNK         0.0660 
     19 N          25.2620   -2.2232   -6.6377 N.am      5 UNK        -0.4015 
     20 C          24.1235   -2.2751   -7.3437 C.2       4 UNK         0.4946 
     21 O          24.0588   -2.6371   -8.5199 O.2       4 UNK        -0.5353 
     22 CA         22.8328   -1.7980   -6.6491 C.3       4 UNK         0.0277 
     23 CB         22.0655   -2.9965   -6.0670 C.3       4 UNK        -0.1981 
     24 N          23.0376   -0.8017   -5.5922 N.am      4 UNK        -0.4209 
     25 C          23.7297    0.3446   -5.6902 C.2       3 UNK         0.4942 
     26 O          24.2523    0.7522   -6.7269 O.2       3 UNK        -0.5208 
     27 CA         23.9441    1.1435   -4.3932 C.3       3 UNK         0.0250 
     28 CB         22.9472    2.3104   -4.3162 C.3       3 UNK        -0.1990 
     29 N          23.8656    0.3541   -3.1559 N.am      3 UNK        -0.4232 
     30 C          24.5824   -0.7409   -2.8601 C.2       2 UNK         0.4993 
     31 O          25.3793   -1.2819   -3.6360 O.2       2 UNK        -0.5286 
     32 CA         24.3073   -1.3618   -1.4885 C.3       2 UNK         0.0209 
     33 CB         23.0666   -2.2717   -1.5443 C.3       2 UNK        -0.1931 
     34 N          25.4636   -2.1439   -1.0668 N.am      2 UNK        -0.4546 
     35 C          25.8482   -2.3338    0.2027 C.2       1 UNK         0.5154 
     36 O          25.2636   -1.8411    1.1697 O.2       1 UNK        -0.5181 
     37 C          27.5016   -1.1549   -6.8179 C.2       5 UNK         0.5014 
     38 O          28.3214   -0.7375   -7.6374 O.2       5 UNK        -0.5248 
     39 N          27.3408   -0.6041   -5.6030 N.am      6 UNK        -0.4434 
     40 CA         28.2068    0.4554   -5.0720 C.3       6 UNK         0.0363 
     41 CB         27.9412    0.6557   -3.5735 C.3       6 UNK        -0.1936 
     42 C          28.1506    1.7937   -5.8269 C.2       6 UNK         0.5081 
     43 O          29.1304    2.5375   -5.7810 O.2       6 UNK        -0.5248 
     44 N          27.0359    2.0779   -6.5144 N.am      7 UNK        -0.4718 
     45 CA         26.8844    3.2608   -7.3666 C.3       7 UNK         0.0273 
     46 CB         25.4818    3.8563   -7.1512 C.3       7 UNK        -0.1935 
     47 C          27.1210    2.9474   -8.8561 C.2       7 UNK         0.5018 
     48 O          27.0864    3.8769   -9.6641 O.2       7 UNK        -0.5186 
     49 N          27.3290    1.6694   -9.2061 N.am      8 UNK        -0.4240 
     50 CA         27.4645    1.1986  -10.5860 C.3       8 UNK         0.0235 
     51 CB         26.5166    0.0089  -10.8136 C.3       8 UNK        -0.2000 
     52 C          28.9089    0.8050  -10.9228 C.2       8 UNK         0.4941 
     53 O          29.3921    1.1686  -11.9962 O.2       8 UNK        -0.5273 
     54 N          29.5675    0.0552  -10.0287 N.am      9 UNK        -0.4262 
     55 CA         30.9337   -0.4325  -10.2143 C.3       9 UNK         0.0264 
     56 CB         31.1806   -1.6147   -9.2661 C.3       9 UNK        -0.1955 
     57 C          31.9636    0.6781   -9.9652 C.2       9 UNK         0.5031 
     58 O          31.7992    1.4780   -9.0399 O.2       9 UNK        -0.5390 
     59 N          33.0365    0.6776  -10.7644 N.am      10 UNK        -0.4204 
     60 CA         34.1467    1.6296  -10.6888 C.3       10 UNK         0.0237 
     61 CB         34.8092    1.7325  -12.0764 C.3       10 UNK        -0.1985 
     62 C          35.1478    1.2585   -9.5767 C.2       10 UNK         0.4970 
     63 O          36.3239    1.0212   -9.8603 O.2       10 UNK        -0.4914 
     64 N          34.6600    1.2001   -8.3324 N.am      11 UNK        -0.4285 
     65 CA         35.4677    0.9950   -7.1215 C.3       11 UNK         0.1007 
     66 C          36.4478    2.1726   -6.8586 C.2       11 UNK         0.5703 
     67 N          37.6225    1.8918   -6.3109 N.am      11 UNK        -0.7361 
     68 O          36.1377    3.3369   -7.1075 O.2       11 UNK        -0.4986 
     69 C69        34.5770    0.7465   -5.8784 C.3       12 UNK        -0.0947 
     70 S70        33.6631   -0.8305   -5.9663 S.3       12 UNK        -0.2240 
     71 C71        32.0007   -0.3192   -5.4358 C.3       12 UNK         0.0194 
     72 H72        26.9335   -7.1515   -1.8804 H         1 UNK         0.0906 
     73 H73        26.1963   -5.9363   -2.9267 H         1 UNK         0.0906 
     74 H74        27.9143   -5.8447   -2.5327 H         1 UNK         0.0906 
     75 H75        28.0725   -3.9129   -1.2798 H         1 UNK         0.3140 
     76 H76        26.8134   -3.8479    1.3207 H         1 UNK         0.1085 
     77 H77        29.1154   -3.1227    1.1901 H         1 UNK         0.0836 
     78 H78        28.1254   -1.7974    1.6955 H         1 UNK         0.0836 
     79 H79        31.3965   -1.7290   -0.5929 H         1 UNK         0.0731 
     80 H80        30.5587   -3.2604   -0.5703 H         1 UNK         0.0731 
     81 H81        31.7606   -0.5397   -2.7329 H         1 UNK         0.1312 
     82 H82        30.6534   -2.5122   -6.3825 H         1 UNK         0.1406 
     83 H83        29.4797   -4.1612   -2.6140 H         1 UNK         0.1631 
     84 H84        29.4183   -5.5180   -4.7065 H         1 UNK         0.0717 
     85 H85        29.6772   -4.7784   -6.2568 H         1 UNK         0.0717 
     86 H86        28.2167   -3.7188   -7.5980 H         1 UNK         0.0934 
     87 H87        26.6488   -4.4551   -7.5905 H         1 UNK         0.0934 
     88 H88        26.4823   -2.1804   -8.3149 H         1 UNK         0.0739 
     89 H89        25.2176   -1.9564   -5.6615 H         1 UNK         0.3093 
     90 H90        22.2116   -1.3285   -7.4144 H         1 UNK         0.0818 
     91 H91        21.0971   -2.6943   -5.6679 H         1 UNK         0.0819 
     92 H92        21.8758   -3.7487   -6.8343 H         1 UNK         0.0819 
     93 H93        22.6242   -3.4824   -5.2658 H         1 UNK         0.0819 
     94 H94        22.6590   -1.0335   -4.6862 H         1 UNK         0.3041 
     95 H95        24.9483    1.5658   -4.4450 H         1 UNK         0.0784 
     96 H96        22.9953    2.9266   -5.2155 H         1 UNK         0.0793 
     97 H97        21.9195    1.9583   -4.2179 H         1 UNK         0.0793 
     98 H98        23.1627    2.9628   -3.4697 H         1 UNK         0.0793 
     99 H99        23.2211    0.7011   -2.4593 H         1 UNK         0.3024 
    100 H100       24.1379   -0.5521   -0.7745 H         1 UNK         0.1171 
    101 H101       22.1793   -1.7154   -1.8488 H         1 UNK         0.0786 
    102 H102       22.8524   -2.7087   -0.5687 H         1 UNK         0.0786 
    103 H103       23.2008   -3.0905   -2.2528 H         1 UNK         0.0786 
    104 H104       26.0222   -2.5234   -1.8204 H         1 UNK         0.2977 
    105 H105       26.6636   -0.9861   -4.9475 H         1 UNK         0.3127 
    106 H106       29.2282    0.0990   -5.1741 H         1 UNK         0.0770 
    107 H107       26.9591    1.0858   -3.3846 H         1 UNK         0.0814 
    108 H108       28.6801    1.3272   -3.1346 H         1 UNK         0.0814 
    109 H109       28.0054   -0.2895   -3.0354 H         1 UNK         0.0814 
    110 H110       26.2615    1.4225   -6.5124 H         1 UNK         0.2983 
    111 H111       27.6124    4.0245   -7.0843 H         1 UNK         0.0947 
    112 H112       25.3762    4.8037   -7.6814 H         1 UNK         0.0806 
    113 H113       25.2901    4.0538   -6.0965 H         1 UNK         0.0806 
    114 H114       24.6982    3.1939   -7.5188 H         1 UNK         0.0806 
    115 H115       27.4276    0.9767   -8.4740 H         1 UNK         0.3000 
    116 H116       27.1708    1.9867  -11.2829 H         1 UNK         0.0850 
    117 H117       26.5518   -0.3224  -11.8523 H         1 UNK         0.0810 
    118 H118       25.4829    0.2764  -10.5933 H         1 UNK         0.0810 
    119 H119       26.7804   -0.8461  -10.1922 H         1 UNK         0.0810 
    120 H120       29.1193   -0.1866   -9.1465 H         1 UNK         0.3040 
    121 H121       31.0350   -0.7903  -11.2414 H         1 UNK         0.0766 
    122 H122       32.1807   -2.0286   -9.4016 H         1 UNK         0.0812 
    123 H123       30.4660   -2.4202   -9.4365 H         1 UNK         0.0812 
    124 H124       31.0945   -1.3052   -8.2265 H         1 UNK         0.0812 
    125 H125       33.1153   -0.0435  -11.4676 H         1 UNK         0.3205 
    126 H126       33.7484    2.6164  -10.4424 H         1 UNK         0.0754 
    127 H127       35.6189    2.4636  -12.0698 H         1 UNK         0.0769 
    128 H128       34.0940    2.0532  -12.8342 H         1 UNK         0.0769 
    129 H129       35.2324    0.7792  -12.3959 H         1 UNK         0.0769 
    130 H130       33.6740    1.3949   -8.1982 H         1 UNK         0.2981 
    131 H131       36.0712    0.1003   -7.2886 H         1 UNK         0.0541 
    132 H132       38.2658    2.6439   -6.1189 H         1 UNK         0.3459 
    133 H133       37.8819    0.9426   -6.0908 H         1 UNK         0.3459 
    134 H134       33.8849    1.5797   -5.7454 H         1 UNK         0.0612 
    135 H135       35.1830    0.7075   -4.9711 H         1 UNK         0.0612 
    136 H136       32.0630    0.5799   -4.8213 H         1 UNK         0.0624 
    137 H137       31.4092   -0.0440   -6.3097 H         1 UNK         0.0624 
@<TRIPOS>BOND
     1    1    2 1    
     2    1   72 1    
     3    1   73 1    
     4    1   74 1    
     5    2    3 2    
     6    2    4 am   BACKBONE|DICT|INTERRES
     7    4    5 1    
     8    4   75 1    
     9    5    6 1    
    10    5   35 1    
    11    5   76 1    
    12    6    7 1    
    13    6   77 1    
    14    6   78 1    
    15    7    8 1    
    16    8    9 1    
    17    8   79 1    
    18    8   80 1    
    19    9   10 ar   
    20    9   14 ar   
    21   10   11 ar   
    22   10   81 1    
    23   11   12 ar   
    24   11   71 1    
    25   12   13 ar   
    26   12   82 1    
    27   13   14 ar   
    28   13   15 1    
    29   14   83 1    
    30   15   16 1    
    31   15   84 1    
    32   15   85 1    
    33   16   17 1    
    34   17   18 1    
    35   17   86 1    
    36   17   87 1    
    37   18   19 1    
    38   18   37 1    
    39   18   88 1    
    40   19   20 am   BACKBONE|DICT|INTERRES
    41   19   89 1    
    42   20   21 2    
    43   20   22 1    
    44   22   23 1    
    45   22   24 1    
    46   22   90 1    
    47   23   91 1    
    48   23   92 1    
    49   23   93 1    
    50   24   25 am   BACKBONE|DICT|INTERRES
    51   24   94 1    
    52   25   26 2    
    53   25   27 1    
    54   27   28 1    
    55   27   29 1    
    56   27   95 1    
    57   28   96 1    
    58   28   97 1    
    59   28   98 1    
    60   29   30 am   BACKBONE|DICT|INTERRES
    61   29   99 1    
    62   30   31 2    
    63   30   32 1    
    64   32   33 1    
    65   32   34 1    
    66   32  100 1    
    67   33  101 1    
    68   33  102 1    
    69   33  103 1    
    70   34   35 am   BACKBONE|DICT|INTERRES
    71   34  104 1    
    72   35   36 2    
    73   37   38 2    
    74   37   39 am   BACKBONE|DICT|INTERRES
    75   39   40 1    
    76   39  105 1    
    77   40   41 1    
    78   40   42 1    
    79   40  106 1    
    80   41  107 1    
    81   41  108 1    
    82   41  109 1    
    83   42   43 2    
    84   42   44 am   BACKBONE|DICT|INTERRES
    85   44   45 1    
    86   44  110 1    
    87   45   46 1    
    88   45   47 1    
    89   45  111 1    
    90   46  112 1    
    91   46  113 1    
    92   46  114 1    
    93   47   48 2    
    94   47   49 am   BACKBONE|DICT|INTERRES
    95   49   50 1    
    96   49  115 1    
    97   50   51 1    
    98   50   52 1    
    99   50  116 1    
   100   51  117 1    
   101   51  118 1    
   102   51  119 1    
   103   52   53 2    
   104   52   54 am   BACKBONE|DICT|INTERRES
   105   54   55 1    
   106   54  120 1    
   107   55   56 1    
   108   55   57 1    
   109   55  121 1    
   110   56  122 1    
   111   56  123 1    
   112   56  124 1    
   113   57   58 2    
   114   57   59 am   BACKBONE|DICT|INTERRES
   115   59   60 1    
   116   59  125 1    
   117   60   61 1    
   118   60   62 1    
   119   60  126 1    
   120   61  127 1    
   121   61  128 1    
   122   61  129 1    
   123   62   63 2    
   124   62   64 am   BACKBONE|DICT|INTERRES
   125   64   65 1    
   126   64  130 1    
   127   65   66 1    
   128   65   69 1    
   129   65  131 1    
   130   66   67 am   BACKBONE|DICT|INTERRES
   131   66   68 2    
   132   67  132 1    
   133   67  133 1    
   134   69   70 1    
   135   69  134 1    
   136   69  135 1    
   137   70   71 1    
   138   71  136 1    
   139   71  137 1    
@<TRIPOS>SUBSTRUCTURE
     1 UNK         1 GROUP             0       ****    0 ROOT    
