@<TRIPOS>MOLECULE
3R137
137   139    1
SMALL
USER_CHARGES


@<TRIPOS>ATOM
      1 CA         24.0354   -5.7675   -4.1970 C.3       0 UNK        -0.2020 
      2 C          24.5347   -4.9328   -3.0282 C.2       0 UNK         0.4855 
      3 O          23.7417   -4.2436   -2.3858 O.2       0 UNK        -0.5197 
      4 N          25.8451   -4.9746   -2.7541 N.am      1 UNK        -0.4892 
      5 CA         26.5200   -4.2025   -1.7052 C.3       1 UNK         0.0835 
      6 C6         28.0053   -4.6147   -1.5278 C.3       12 UNK        -0.0855 
      7 S7         28.9625   -4.7523   -3.0830 S.3       12 UNK        -0.2931 
      8 C8         30.6462   -4.3561   -2.5146 C.3       12 UNK         0.0378 
      9 C9         31.1166   -3.0000   -3.0227 C.ar      12 UNK        -0.0802 
     10 C10        32.0387   -2.9307   -4.0717 C.ar      12 UNK        -0.0944 
     11 C11        32.5233   -1.6968   -4.5160 C.ar      12 UNK        -0.0787 
     12 C12        32.0618   -0.5232   -3.9107 C.ar      12 UNK        -0.0862 
     13 C13        31.1447   -0.5767   -2.8569 C.ar      12 UNK        -0.0733 
     14 C14        30.6696   -1.8190   -2.4209 C.ar      12 UNK        -0.0832 
     15 C15        30.7164    0.7055   -2.1540 C.3       12 UNK         0.0240 
     16 S16        29.7744    1.8268   -3.2364 S.3       12 UNK        -0.2522 
     17 C17        28.2241    0.9010   -3.4693 C.3       12 UNK        -0.0967 
     18 CA         27.8447    0.7456   -4.9638 C.3       5 UNK         0.0660 
     19 N          27.0500   -0.4658   -5.1846 N.am      5 UNK        -0.4015 
     20 C          26.5919   -0.9051   -6.3653 C.2       4 UNK         0.4946 
     21 O          26.8196   -0.3599   -7.4428 O.2       4 UNK        -0.5353 
     22 CA         25.6575   -2.1226   -6.3282 C.3       4 UNK         0.0277 
     23 CB         26.4498   -3.4308   -6.1726 C.3       4 UNK        -0.1981 
     24 N          24.6646   -1.9945   -5.2596 N.am      4 UNK        -0.4209 
     25 C          23.6506   -1.1161   -5.2814 C.2       3 UNK         0.4942 
     26 O          23.3986   -0.3856   -6.2391 O.2       3 UNK        -0.5208 
     27 CA         22.7989   -1.0015   -4.0067 C.3       3 UNK         0.0250 
     28 CB         21.6543   -2.0268   -4.0215 C.3       3 UNK        -0.1990 
     29 N          23.5948   -1.1530   -2.7849 N.am      3 UNK        -0.4232 
     30 C          24.4829   -0.2408   -2.3591 C.2       2 UNK         0.4993 
     31 O          24.6961    0.8232   -2.9385 O.2       2 UNK        -0.5286 
     32 CA         25.3165   -0.5864   -1.1119 C.3       2 UNK         0.0209 
     33 CB         24.5857   -0.1412    0.1644 C.3       2 UNK        -0.1931 
     34 N          25.6643   -2.0070   -1.0094 N.am      2 UNK        -0.4546 
     35 C          26.3522   -2.6879   -1.9362 C.2       1 UNK         0.5154 
     36 O          26.7902   -2.1736   -2.9662 O.2       1 UNK        -0.5181 
     37 C          27.1444    2.0130   -5.5017 C.2       5 UNK         0.5014 
     38 O          27.7756    2.8104   -6.1967 O.2       5 UNK        -0.5248 
     39 N          25.8458    2.1581   -5.1949 N.am      6 UNK        -0.4434 
     40 CA         24.9885    3.2402   -5.6828 C.3       6 UNK         0.0363 
     41 CB         23.6396    3.1994   -4.9475 C.3       6 UNK        -0.1936 
     42 C          24.7708    3.2104   -7.2055 C.2       6 UNK         0.5081 
     43 O          24.6867    4.2769   -7.8156 O.2       6 UNK        -0.5248 
     44 N          24.6808    2.0078   -7.7924 N.am      7 UNK        -0.4718 
     45 CA         24.5653    1.8058   -9.2377 C.3       7 UNK         0.0273 
     46 CB         24.1047    0.3697   -9.5386 C.3       7 UNK        -0.1935 
     47 C          25.8735    2.1445   -9.9709 C.2       7 UNK         0.5018 
     48 O          25.8483    2.9614  -10.8929 O.2       7 UNK        -0.5186 
     49 N          26.9865    1.5378   -9.5382 N.am      8 UNK        -0.4240 
     50 CA         28.3312    1.7768  -10.0561 C.3       8 UNK         0.0235 
     51 CB         28.4831    1.2350  -11.4942 C.3       8 UNK        -0.2000 
     52 C          29.3502    1.1166   -9.1225 C.2       8 UNK         0.4941 
     53 O          29.4667   -0.1111   -9.1223 O.2       8 UNK        -0.5273 
     54 N          30.1177    1.9289   -8.3847 N.am      9 UNK        -0.4262 
     55 CA         31.2165    1.5013   -7.5090 C.3       9 UNK         0.0264 
     56 CB         31.5217    2.6314   -6.5091 C.3       9 UNK        -0.1955 
     57 C          32.4668    1.0682   -8.3060 C.2       9 UNK         0.5031 
     58 O          33.5613    1.5930   -8.0890 O.2       9 UNK        -0.5390 
     59 N          32.2826    0.1211   -9.2320 N.am      10 UNK        -0.4204 
     60 CA         33.2949   -0.4099  -10.1434 C.3       10 UNK         0.0237 
     61 CB         32.5857   -0.9850  -11.3841 C.3       10 UNK        -0.1985 
     62 C          34.2012   -1.4390   -9.4445 C.2       10 UNK         0.4970 
     63 O          34.1780   -2.6211   -9.7923 O.2       10 UNK        -0.4914 
     64 N          34.9729   -0.9708   -8.4570 N.am      11 UNK        -0.4285 
     65 CA         35.9441   -1.7766   -7.7002 C.3       11 UNK         0.1007 
     66 C          37.2119   -2.1815   -8.5116 C.2       11 UNK         0.5703 
     67 N          37.4955   -1.5748   -9.6588 N.am      11 UNK        -0.7361 
     68 O          37.9492   -3.0708   -8.0924 O.2       11 UNK        -0.4986 
     69 C69        36.3524   -1.0867   -6.3699 C.3       12 UNK        -0.0947 
     70 S70        35.0567   -0.7412   -5.1210 S.3       12 UNK        -0.2240 
     71 C71        33.5545   -1.6403   -5.6367 C.3       12 UNK         0.0194 
     72 H72        23.5796   -5.1249   -4.9498 H         1 UNK         0.0906 
     73 H73        24.8405   -6.3287   -4.6709 H         1 UNK         0.0906 
     74 H74        23.2830   -6.4775   -3.8548 H         1 UNK         0.0906 
     75 H75        26.4647   -5.5238   -3.3340 H         1 UNK         0.3140 
     76 H76        26.0121   -4.4470   -0.7695 H         1 UNK         0.1085 
     77 H77        28.0470   -5.5903   -1.0407 H         1 UNK         0.0836 
     78 H78        28.5057   -3.9286   -0.8417 H         1 UNK         0.0836 
     79 H79        31.3170   -5.1422   -2.8648 H         1 UNK         0.0731 
     80 H80        30.7065   -4.3841   -1.4259 H         1 UNK         0.0731 
     81 H81        32.3925   -3.8432   -4.5322 H         1 UNK         0.1312 
     82 H82        32.4380    0.4347   -4.2421 H         1 UNK         0.1406 
     83 H83        29.9642   -1.8718   -1.6030 H         1 UNK         0.1631 
     84 H84        31.6077    1.2281   -1.8038 H         1 UNK         0.0717 
     85 H85        30.1239    0.4867   -1.2641 H         1 UNK         0.0717 
     86 H86        28.3503   -0.0817   -3.0151 H         1 UNK         0.0934 
     87 H87        27.4309    1.3846   -2.8962 H         1 UNK         0.0934 
     88 H88        28.7589    0.6062   -5.5447 H         1 UNK         0.0739 
     89 H89        26.8531   -1.0293   -4.3588 H         1 UNK         0.3093 
     90 H90        25.1266   -2.1637   -7.2819 H         1 UNK         0.0818 
     91 H91        27.1813   -3.5363   -6.9750 H         1 UNK         0.0819 
     92 H92        26.9978   -3.4718   -5.2313 H         1 UNK         0.0819 
     93 H93        25.7943   -4.2997   -6.2193 H         1 UNK         0.0819 
     94 H94        24.8403   -2.5065   -4.4071 H         1 UNK         0.3041 
     95 H95        22.3550   -0.0036   -3.9963 H         1 UNK         0.0784 
     96 H96        21.0159   -1.8818   -4.8941 H         1 UNK         0.0793 
     97 H97        22.0243   -3.0515   -4.0581 H         1 UNK         0.0793 
     98 H98        21.0224   -1.9295   -3.1386 H         1 UNK         0.0793 
     99 H99        23.5127   -2.0329   -2.2879 H         1 UNK         0.3024 
    100 H100       26.2505   -0.0252   -1.1828 H         1 UNK         0.1171 
    101 H101       25.2060   -0.2870    1.0491 H         1 UNK         0.0786 
    102 H102       24.3342    0.9196    0.1194 H         1 UNK         0.0786 
    103 H103       23.6550   -0.6908    0.3109 H         1 UNK         0.0786 
    104 H104       25.3071   -2.5015   -0.2041 H         1 UNK         0.2977 
    105 H105       25.4167    1.5008   -4.5465 H         1 UNK         0.3127 
    106 H106       25.4801    4.1846   -5.4399 H         1 UNK         0.0770 
    107 H107       23.1143    2.2599   -5.1231 H         1 UNK         0.0814 
    108 H108       22.9870    4.0069   -5.2819 H         1 UNK         0.0814 
    109 H109       23.7706    3.3134   -3.8713 H         1 UNK         0.0814 
    110 H110       24.7253    1.1762   -7.2156 H         1 UNK         0.2983 
    111 H111       23.7944    2.4842   -9.6103 H         1 UNK         0.0947 
    112 H112       24.8170   -0.3734   -9.1810 H         1 UNK         0.0806 
    113 H113       23.9861    0.2165  -10.6120 H         1 UNK         0.0806 
    114 H114       23.1424    0.1580   -9.0721 H         1 UNK         0.0806 
    115 H115       26.9246    0.8725   -8.7643 H         1 UNK         0.3000 
    116 H116       28.5096    2.8541  -10.0685 H         1 UNK         0.0850 
    117 H117       29.5130    1.3311  -11.8407 H         1 UNK         0.0810 
    118 H118       27.8573    1.7792  -12.2010 H         1 UNK         0.0810 
    119 H119       28.2158    0.1793  -11.5557 H         1 UNK         0.0810 
    120 H120       29.9599    2.9249   -8.4417 H         1 UNK         0.3040 
    121 H121       30.8842    0.6326   -6.9363 H         1 UNK         0.0766 
    122 H122       30.6356    2.9021   -5.9350 H         1 UNK         0.0812 
    123 H123       31.8816    3.5298   -7.0120 H         1 UNK         0.0812 
    124 H124       32.2886    2.3278   -5.7957 H         1 UNK         0.0812 
    125 H125       31.3391   -0.2514   -9.3216 H         1 UNK         0.3205 
    126 H126       33.9322    0.4117  -10.4774 H         1 UNK         0.0754 
    127 H127       33.3078   -1.3760  -12.1023 H         1 UNK         0.0769 
    128 H128       32.0025   -0.2197  -11.8969 H         1 UNK         0.0769 
    129 H129       31.9093   -1.7999  -11.1222 H         1 UNK         0.0769 
    130 H130       34.8902    0.0082   -8.2044 H         1 UNK         0.2981 
    131 H131       35.4636   -2.7234   -7.4525 H         1 UNK         0.0541 
    132 H132       36.9035   -0.8400  -10.0100 H         1 UNK         0.3459 
    133 H133       38.3169   -1.8516  -10.1731 H         1 UNK         0.3459 
    134 H134       37.0997   -1.6942   -5.8556 H         1 UNK         0.0612 
    135 H135       36.8486   -0.1392   -6.5877 H         1 UNK         0.0612 
    136 H136       33.1057   -1.1526   -6.5001 H         1 UNK         0.0624 
    137 H137       33.8243   -2.6512   -5.9415 H         1 UNK         0.0624 
@<TRIPOS>BOND
     1    1    2 1    
     2    1   72 1    
     3    1   73 1    
     4    1   74 1    
     5    2    3 2    
     6    2    4 am   BACKBONE|DICT|INTERRES
     7    4    5 1    
     8    4   75 1    
     9    5    6 1    
    10    5   35 1    
    11    5   76 1    
    12    6    7 1    
    13    6   77 1    
    14    6   78 1    
    15    7    8 1    
    16    8    9 1    
    17    8   79 1    
    18    8   80 1    
    19    9   10 ar   
    20    9   14 ar   
    21   10   11 ar   
    22   10   81 1    
    23   11   12 ar   
    24   11   71 1    
    25   12   13 ar   
    26   12   82 1    
    27   13   14 ar   
    28   13   15 1    
    29   14   83 1    
    30   15   16 1    
    31   15   84 1    
    32   15   85 1    
    33   16   17 1    
    34   17   18 1    
    35   17   86 1    
    36   17   87 1    
    37   18   19 1    
    38   18   37 1    
    39   18   88 1    
    40   19   20 am   BACKBONE|DICT|INTERRES
    41   19   89 1    
    42   20   21 2    
    43   20   22 1    
    44   22   23 1    
    45   22   24 1    
    46   22   90 1    
    47   23   91 1    
    48   23   92 1    
    49   23   93 1    
    50   24   25 am   BACKBONE|DICT|INTERRES
    51   24   94 1    
    52   25   26 2    
    53   25   27 1    
    54   27   28 1    
    55   27   29 1    
    56   27   95 1    
    57   28   96 1    
    58   28   97 1    
    59   28   98 1    
    60   29   30 am   BACKBONE|DICT|INTERRES
    61   29   99 1    
    62   30   31 2    
    63   30   32 1    
    64   32   33 1    
    65   32   34 1    
    66   32  100 1    
    67   33  101 1    
    68   33  102 1    
    69   33  103 1    
    70   34   35 am   BACKBONE|DICT|INTERRES
    71   34  104 1    
    72   35   36 2    
    73   37   38 2    
    74   37   39 am   BACKBONE|DICT|INTERRES
    75   39   40 1    
    76   39  105 1    
    77   40   41 1    
    78   40   42 1    
    79   40  106 1    
    80   41  107 1    
    81   41  108 1    
    82   41  109 1    
    83   42   43 2    
    84   42   44 am   BACKBONE|DICT|INTERRES
    85   44   45 1    
    86   44  110 1    
    87   45   46 1    
    88   45   47 1    
    89   45  111 1    
    90   46  112 1    
    91   46  113 1    
    92   46  114 1    
    93   47   48 2    
    94   47   49 am   BACKBONE|DICT|INTERRES
    95   49   50 1    
    96   49  115 1    
    97   50   51 1    
    98   50   52 1    
    99   50  116 1    
   100   51  117 1    
   101   51  118 1    
   102   51  119 1    
   103   52   53 2    
   104   52   54 am   BACKBONE|DICT|INTERRES
   105   54   55 1    
   106   54  120 1    
   107   55   56 1    
   108   55   57 1    
   109   55  121 1    
   110   56  122 1    
   111   56  123 1    
   112   56  124 1    
   113   57   58 2    
   114   57   59 am   BACKBONE|DICT|INTERRES
   115   59   60 1    
   116   59  125 1    
   117   60   61 1    
   118   60   62 1    
   119   60  126 1    
   120   61  127 1    
   121   61  128 1    
   122   61  129 1    
   123   62   63 2    
   124   62   64 am   BACKBONE|DICT|INTERRES
   125   64   65 1    
   126   64  130 1    
   127   65   66 1    
   128   65   69 1    
   129   65  131 1    
   130   66   67 am   BACKBONE|DICT|INTERRES
   131   66   68 2    
   132   67  132 1    
   133   67  133 1    
   134   69   70 1    
   135   69  134 1    
   136   69  135 1    
   137   70   71 1    
   138   71  136 1    
   139   71  137 1    
@<TRIPOS>SUBSTRUCTURE
     1 UNK         1 GROUP             0       ****    0 ROOT    
