@<TRIPOS>MOLECULE
3R137
137   139    1
SMALL
USER_CHARGES


@<TRIPOS>ATOM
      1 CA         28.0454   -5.9443    0.8687 C.3       0 UNK        -0.2020 
      2 C          27.8233   -4.4411    0.9430 C.2       0 UNK         0.4855 
      3 O          27.1767   -3.9629    1.8751 O.2       0 UNK        -0.5197 
      4 N          28.3579   -3.6936   -0.0314 N.am      1 UNK        -0.4892 
      5 CA         28.2405   -2.2330   -0.1306 C.3       1 UNK         0.0835 
      6 C6         29.2182   -1.6378   -1.1745 C.3       12 UNK        -0.0855 
      7 S7         30.9779   -1.8803   -0.7552 S.3       12 UNK        -0.2931 
      8 C8         31.4080   -3.4449   -1.5903 C.3       12 UNK         0.0378 
      9 C9         31.0791   -3.4480   -3.0781 C.ar      12 UNK        -0.0802 
     10 C10        31.7800   -2.6162   -3.9553 C.ar      12 UNK        -0.0944 
     11 C11        31.5202   -2.6446   -5.3325 C.ar      12 UNK        -0.0787 
     12 C12        30.5360   -3.5160   -5.8140 C.ar      12 UNK        -0.0862 
     13 C13        29.8199   -4.3520   -4.9495 C.ar      12 UNK        -0.0733 
     14 C14        30.1012   -4.3110   -3.5815 C.ar      12 UNK        -0.0832 
     15 C15        28.8009   -5.3665   -5.4700 C.3       12 UNK         0.0240 
     16 S16        27.8054   -4.8053   -6.8929 S.3       12 UNK        -0.2522 
     17 C17        26.6810   -3.5981   -6.1173 C.3       12 UNK        -0.0967 
     18 CA         26.4584   -2.3579   -7.0183 C.3       5 UNK         0.0660 
     19 N          25.2047   -1.6692   -6.7032 N.am      5 UNK        -0.4015 
     20 C          24.6307   -0.7369   -7.4775 C.2       4 UNK         0.4946 
     21 O          25.0826   -0.3675   -8.5605 O.2       4 UNK        -0.5353 
     22 CA         23.3534   -0.0762   -6.9342 C.3       4 UNK         0.0277 
     23 CB         22.1279   -0.9687   -7.1874 C.3       4 UNK        -0.1981 
     24 N          23.4469    0.2461   -5.5087 N.am      4 UNK        -0.4209 
     25 C          24.3008    1.1432   -4.9957 C.2       3 UNK         0.4942 
     26 O          25.0744    1.8192   -5.6715 O.2       3 UNK        -0.5208 
     27 CA         24.3293    1.2801   -3.4661 C.3       3 UNK         0.0250 
     28 CB         23.2384    2.2532   -2.9909 C.3       3 UNK        -0.1990 
     29 N          24.2069    0.0095   -2.7423 N.am      3 UNK        -0.4232 
     30 C          25.0291   -1.0393   -2.8837 C.2       2 UNK         0.4993 
     31 O          25.9187   -1.1154   -3.7358 O.2       2 UNK        -0.5286 
     32 CA         24.8295   -2.2120   -1.9113 C.3       2 UNK         0.0209 
     33 CB         24.2480   -3.4307   -2.6462 C.3       2 UNK        -0.1931 
     34 N          26.1071   -2.5786   -1.2996 N.am      2 UNK        -0.4546 
     35 C          26.8055   -1.7861   -0.4720 C.2       1 UNK         0.5154 
     36 O          26.3703   -0.7328   -0.0033 O.2       1 UNK        -0.5181 
     37 C          27.6496   -1.3857   -6.9649 C.2       5 UNK         0.5014 
     38 O          28.4475   -1.3470   -7.9038 O.2       5 UNK        -0.5248 
     39 N          27.7125   -0.5856   -5.8901 N.am      6 UNK        -0.4434 
     40 CA         28.7216    0.4518   -5.6869 C.3       6 UNK         0.0363 
     41 CB         28.5518    1.0797   -4.2966 C.3       6 UNK        -0.1936 
     42 C          28.7077    1.5291   -6.7825 C.2       6 UNK         0.5081 
     43 O          29.7791    1.9719   -7.1931 O.2       6 UNK        -0.5248 
     44 N          27.5162    1.9121   -7.2594 N.am      7 UNK        -0.4718 
     45 CA         27.3426    2.8083   -8.4016 C.3       7 UNK         0.0273 
     46 CB         25.8854    3.2929   -8.4720 C.3       7 UNK        -0.1935 
     47 C          27.7691    2.1540   -9.7252 C.2       7 UNK         0.5018 
     48 O          28.5612    2.7478  -10.4572 O.2       7 UNK        -0.5186 
     49 N          27.2490    0.9489  -10.0063 N.am      8 UNK        -0.4240 
     50 CA         27.4764    0.2134  -11.2550 C.3       8 UNK         0.0235 
     51 CB         26.5809   -1.0352  -11.2985 C.3       8 UNK        -0.2000 
     52 C          28.9437   -0.1732  -11.4935 C.2       8 UNK         0.4941 
     53 O          29.4373    0.0038  -12.6080 O.2       8 UNK        -0.5273 
     54 N          29.6133   -0.6827  -10.4517 N.am      9 UNK        -0.4262 
     55 CA         31.0178   -1.0998  -10.5014 C.3       9 UNK         0.0264 
     56 CB         31.1820   -2.3887   -9.6826 C.3       9 UNK        -0.1955 
     57 C          32.0000    0.0071  -10.0665 C.2       9 UNK         0.5031 
     58 O          33.2038   -0.2508  -10.0274 O.2       9 UNK        -0.5390 
     59 N          31.4865    1.2151   -9.7869 N.am      10 UNK        -0.4204 
     60 CA         32.2176    2.4530   -9.4894 C.3       10 UNK         0.0237 
     61 CB         32.9877    2.9397  -10.7363 C.3       10 UNK        -0.1985 
     62 C          33.0982    2.3839   -8.2243 C.2       10 UNK         0.4970 
     63 O          34.2259    2.8828   -8.2317 O.2       10 UNK        -0.4914 
     64 N          32.5486    1.8057   -7.1512 N.am      11 UNK        -0.4285 
     65 CA         33.0943    1.8967   -5.7866 C.3       11 UNK         0.1007 
     66 C          32.5457    3.1276   -5.0113 C.2       11 UNK         0.5703 
     67 N          31.4249    3.7193   -5.4116 N.am      11 UNK        -0.7361 
     68 O          33.1565    3.5608   -4.0374 O.2       11 UNK        -0.4986 
     69 C69        32.8717    0.5986   -4.9688 C.3       12 UNK        -0.0947 
     70 S70        33.7062   -0.8407   -5.7117 S.3       12 UNK        -0.2240 
     71 C71        32.2824   -1.7869   -6.3479 C.3       12 UNK         0.0194 
     72 H72        28.5624   -6.2912    1.7631 H         1 UNK         0.0906 
     73 H73        27.0885   -6.4619    0.8064 H         1 UNK         0.0906 
     74 H74        28.6416   -6.2286    0.0019 H         1 UNK         0.0906 
     75 H75        28.8967   -4.1380   -0.7577 H         1 UNK         0.3140 
     76 H76        28.4830   -1.8099    0.8471 H         1 UNK         0.1085 
     77 H77        29.0074   -2.0205   -2.1742 H         1 UNK         0.0836 
     78 H78        29.0716   -0.5578   -1.2431 H         1 UNK         0.0836 
     79 H79        32.4784   -3.6170   -1.4680 H         1 UNK         0.0731 
     80 H80        30.9168   -4.2730   -1.0789 H         1 UNK         0.0731 
     81 H81        32.5354   -1.9606   -3.5476 H         1 UNK         0.1312 
     82 H82        30.3381   -3.5596   -6.8751 H         1 UNK         0.1406 
     83 H83        29.5738   -4.9756   -2.9115 H         1 UNK         0.1631 
     84 H84        28.1196   -5.6704   -4.6735 H         1 UNK         0.0717 
     85 H85        29.3426   -6.2651   -5.7677 H         1 UNK         0.0717 
     86 H86        25.7348   -4.1150   -5.9500 H         1 UNK         0.0934 
     87 H87        27.0451   -3.3135   -5.1275 H         1 UNK         0.0934 
     88 H88        26.3676   -2.7008   -8.0517 H         1 UNK         0.0739 
     89 H89        24.8076   -1.8513   -5.7933 H         1 UNK         0.3093 
     90 H90        23.2110    0.8598   -7.4792 H         1 UNK         0.0818 
     91 H91        21.2058   -0.4701   -6.8880 H         1 UNK         0.0819 
     92 H92        22.0340   -1.2082   -8.2477 H         1 UNK         0.0819 
     93 H93        22.1911   -1.9127   -6.6447 H         1 UNK         0.0819 
     94 H94        22.8425   -0.2593   -4.8773 H         1 UNK         0.3041 
     95 H95        25.2990    1.7058   -3.2004 H         1 UNK         0.0784 
     96 H96        23.3207    3.2123   -3.5046 H         1 UNK         0.0793 
     97 H97        22.2371    1.8656   -3.1828 H         1 UNK         0.0793 
     98 H98        23.3227    2.4536   -1.9226 H         1 UNK         0.0793 
     99 H99        23.5028   -0.0228   -2.0188 H         1 UNK         0.3024 
    100 H100       24.1408   -1.9158   -1.1167 H         1 UNK         0.1171 
    101 H101       23.2882   -3.1897   -3.1050 H         1 UNK         0.0786 
    102 H102       24.0781   -4.2618   -1.9613 H         1 UNK         0.0786 
    103 H103       24.9106   -3.7808   -3.4387 H         1 UNK         0.0786 
    104 H104       26.5493   -3.4194   -1.6385 H         1 UNK         0.2977 
    105 H105       27.0205   -0.7038   -5.1509 H         1 UNK         0.3127 
    106 H106       29.6934   -0.0414   -5.7228 H         1 UNK         0.0770 
    107 H107       27.5888    1.5813   -4.1976 H         1 UNK         0.0814 
    108 H108       29.3297    1.8200   -4.1047 H         1 UNK         0.0814 
    109 H109       28.6188    0.3258   -3.5130 H         1 UNK         0.0814 
    110 H110       26.6710    1.5687   -6.8121 H         1 UNK         0.2983 
    111 H111       27.9797    3.6818   -8.2449 H         1 UNK         0.0947 
    112 H112       25.7346    3.9590   -9.3226 H         1 UNK         0.0806 
    113 H113       25.6108    3.8466   -7.5740 H         1 UNK         0.0806 
    114 H114       25.1857    2.4629   -8.5767 H         1 UNK         0.0806 
    115 H115       26.5930    0.5299   -9.3506 H         1 UNK         0.3000 
    116 H116       27.1769    0.8697  -12.0749 H         1 UNK         0.0850 
    117 H117       26.7369   -1.5992  -12.2192 H         1 UNK         0.0810 
    118 H118       25.5252   -0.7664  -11.2595 H         1 UNK         0.0810 
    119 H119       26.7858   -1.7066  -10.4635 H         1 UNK         0.0810 
    120 H120       29.1282   -0.8189   -9.5645 H         1 UNK         0.3040 
    121 H121       31.2874   -1.3451  -11.5308 H         1 UNK         0.0766 
    122 H122       32.2259   -2.6989   -9.6218 H         1 UNK         0.0812 
    123 H123       30.6263   -3.2113  -10.1328 H         1 UNK         0.0812 
    124 H124       30.8091   -2.2602   -8.6706 H         1 UNK         0.0812 
    125 H125       30.4805    1.3133   -9.8322 H         1 UNK         0.3205 
    126 H126       31.4518    3.1997   -9.2727 H         1 UNK         0.0754 
    127 H127       33.4232    3.9255  -10.5687 H         1 UNK         0.0769 
    128 H128       32.3288    3.0218  -11.6009 H         1 UNK         0.0769 
    129 H129       33.8025    2.2638  -10.9979 H         1 UNK         0.0769 
    130 H130       31.5745    1.5256   -7.2217 H         1 UNK         0.2981 
    131 H131       34.1737    2.0457   -5.8522 H         1 UNK         0.0541 
    132 H132       30.8892    3.3351   -6.1803 H         1 UNK         0.3459 
    133 H133       31.0853    4.5235   -4.9092 H         1 UNK         0.3459 
    134 H134       31.8078    0.3935   -4.8462 H         1 UNK         0.0612 
    135 H135       33.2727    0.7113   -3.9598 H         1 UNK         0.0612 
    136 H136       31.5905   -1.0965   -6.8315 H         1 UNK         0.0624 
    137 H137       32.6656   -2.4445   -7.1286 H         1 UNK         0.0624 
@<TRIPOS>BOND
     1    1    2 1    
     2    1   72 1    
     3    1   73 1    
     4    1   74 1    
     5    2    3 2    
     6    2    4 am   BACKBONE|DICT|INTERRES
     7    4    5 1    
     8    4   75 1    
     9    5    6 1    
    10    5   35 1    
    11    5   76 1    
    12    6    7 1    
    13    6   77 1    
    14    6   78 1    
    15    7    8 1    
    16    8    9 1    
    17    8   79 1    
    18    8   80 1    
    19    9   10 ar   
    20    9   14 ar   
    21   10   11 ar   
    22   10   81 1    
    23   11   12 ar   
    24   11   71 1    
    25   12   13 ar   
    26   12   82 1    
    27   13   14 ar   
    28   13   15 1    
    29   14   83 1    
    30   15   16 1    
    31   15   84 1    
    32   15   85 1    
    33   16   17 1    
    34   17   18 1    
    35   17   86 1    
    36   17   87 1    
    37   18   19 1    
    38   18   37 1    
    39   18   88 1    
    40   19   20 am   BACKBONE|DICT|INTERRES
    41   19   89 1    
    42   20   21 2    
    43   20   22 1    
    44   22   23 1    
    45   22   24 1    
    46   22   90 1    
    47   23   91 1    
    48   23   92 1    
    49   23   93 1    
    50   24   25 am   BACKBONE|DICT|INTERRES
    51   24   94 1    
    52   25   26 2    
    53   25   27 1    
    54   27   28 1    
    55   27   29 1    
    56   27   95 1    
    57   28   96 1    
    58   28   97 1    
    59   28   98 1    
    60   29   30 am   BACKBONE|DICT|INTERRES
    61   29   99 1    
    62   30   31 2    
    63   30   32 1    
    64   32   33 1    
    65   32   34 1    
    66   32  100 1    
    67   33  101 1    
    68   33  102 1    
    69   33  103 1    
    70   34   35 am   BACKBONE|DICT|INTERRES
    71   34  104 1    
    72   35   36 2    
    73   37   38 2    
    74   37   39 am   BACKBONE|DICT|INTERRES
    75   39   40 1    
    76   39  105 1    
    77   40   41 1    
    78   40   42 1    
    79   40  106 1    
    80   41  107 1    
    81   41  108 1    
    82   41  109 1    
    83   42   43 2    
    84   42   44 am   BACKBONE|DICT|INTERRES
    85   44   45 1    
    86   44  110 1    
    87   45   46 1    
    88   45   47 1    
    89   45  111 1    
    90   46  112 1    
    91   46  113 1    
    92   46  114 1    
    93   47   48 2    
    94   47   49 am   BACKBONE|DICT|INTERRES
    95   49   50 1    
    96   49  115 1    
    97   50   51 1    
    98   50   52 1    
    99   50  116 1    
   100   51  117 1    
   101   51  118 1    
   102   51  119 1    
   103   52   53 2    
   104   52   54 am   BACKBONE|DICT|INTERRES
   105   54   55 1    
   106   54  120 1    
   107   55   56 1    
   108   55   57 1    
   109   55  121 1    
   110   56  122 1    
   111   56  123 1    
   112   56  124 1    
   113   57   58 2    
   114   57   59 am   BACKBONE|DICT|INTERRES
   115   59   60 1    
   116   59  125 1    
   117   60   61 1    
   118   60   62 1    
   119   60  126 1    
   120   61  127 1    
   121   61  128 1    
   122   61  129 1    
   123   62   63 2    
   124   62   64 am   BACKBONE|DICT|INTERRES
   125   64   65 1    
   126   64  130 1    
   127   65   66 1    
   128   65   69 1    
   129   65  131 1    
   130   66   67 am   BACKBONE|DICT|INTERRES
   131   66   68 2    
   132   67  132 1    
   133   67  133 1    
   134   69   70 1    
   135   69  134 1    
   136   69  135 1    
   137   70   71 1    
   138   71  136 1    
   139   71  137 1    
@<TRIPOS>SUBSTRUCTURE
     1 UNK         1 GROUP             0       ****    0 ROOT    
