@<TRIPOS>MOLECULE
3R137
137   139    1
SMALL
USER_CHARGES


@<TRIPOS>ATOM
      1 CA         25.0663   -6.5411    1.5983 C.3       0 UNK        -0.2020 
      2 C          25.6632   -5.1427    1.5480 C.2       0 UNK         0.4855 
      3 O          25.3709   -4.3218    2.4178 O.2       0 UNK        -0.5197 
      4 N          26.5007   -4.8672    0.5387 N.am      1 UNK        -0.4892 
      5 CA         27.1439   -3.5649    0.3133 C.3       1 UNK         0.0835 
      6 C6         28.2921   -3.6818   -0.7194 C.3       12 UNK        -0.0855 
      7 S7         29.5865   -2.4153   -0.4957 S.3       12 UNK        -0.2931 
      8 C8         31.0586   -3.2864   -1.1255 C.3       12 UNK         0.0378 
      9 C9         31.1090   -3.3011   -2.6484 C.ar      12 UNK        -0.0802 
     10 C10        31.9908   -2.4591   -3.3310 C.ar      12 UNK        -0.0944 
     11 C11        32.0728   -2.4919   -4.7264 C.ar      12 UNK        -0.0787 
     12 C12        31.2408   -3.3597   -5.4455 C.ar      12 UNK        -0.0862 
     13 C13        30.3477   -4.2051   -4.7735 C.ar      12 UNK        -0.0733 
     14 C14        30.3014   -4.1787   -3.3771 C.ar      12 UNK        -0.0832 
     15 C15        29.4755   -5.2041   -5.5287 C.3       12 UNK         0.0240 
     16 S16        28.4298   -4.4590   -6.8202 S.3       12 UNK        -0.2522 
     17 C17        27.2380   -3.4338   -5.8829 C.3       12 UNK        -0.0967 
     18 CA         26.7363   -2.2592   -6.7626 C.3       5 UNK         0.0660 
     19 N          25.4442   -1.7042   -6.3451 N.am      5 UNK        -0.4015 
     20 C          24.6795   -0.9536   -7.1590 C.2       4 UNK         0.4946 
     21 O          24.9619   -0.7154   -8.3336 O.2       4 UNK        -0.5353 
     22 CA         23.4083   -0.3197   -6.5676 C.3       4 UNK         0.0277 
     23 CB         22.2402   -1.3180   -6.5999 C.3       4 UNK        -0.1981 
     24 N          23.5916    0.1768   -5.2045 N.am      4 UNK        -0.4209 
     25 C          24.4821    1.1095   -4.8370 C.2       3 UNK         0.4942 
     26 O          25.1890    1.7294   -5.6299 O.2       3 UNK        -0.5208 
     27 CA         24.6516    1.3641   -3.3289 C.3       3 UNK         0.0250 
     28 CB         23.8953    2.6356   -2.9130 C.3       3 UNK        -0.1990 
     29 N          24.2339    0.2465   -2.4734 N.am      3 UNK        -0.4232 
     30 C          24.7491   -0.9910   -2.5041 C.2       2 UNK         0.4993 
     31 O          25.6092   -1.3641   -3.3092 O.2       2 UNK        -0.5286 
     32 CA         24.1395   -1.9989   -1.5175 C.3       2 UNK         0.0209 
     33 CB         23.0720   -2.8531   -2.2213 C.3       2 UNK        -0.1931 
     34 N          25.1585   -2.8790   -0.9495 N.am      2 UNK        -0.4546 
     35 C          26.1263   -2.4841   -0.1093 C.2       1 UNK         0.5154 
     36 O          26.2171   -1.3410    0.3425 O.2       1 UNK        -0.5181 
     37 C          27.7921   -1.1493   -6.8877 C.2       5 UNK         0.5014 
     38 O          28.5306   -1.1391   -7.8706 O.2       5 UNK        -0.5248 
     39 N          27.8146   -0.2129   -5.9271 N.am      6 UNK        -0.4434 
     40 CA         28.7324    0.9276   -5.9243 C.3       6 UNK         0.0363 
     41 CB         28.5970    1.7226   -4.6169 C.3       6 UNK        -0.1936 
     42 C          28.5675    1.8340   -7.1542 C.2       6 UNK         0.5081 
     43 O          29.5651    2.1871   -7.7843 O.2       6 UNK        -0.5248 
     44 N          27.3112    2.1446   -7.5002 N.am      7 UNK        -0.4718 
     45 CA         26.9356    2.9045   -8.6927 C.3       7 UNK         0.0273 
     46 CB         25.4344    3.2293   -8.6359 C.3       7 UNK        -0.1935 
     47 C          27.2830    2.1841  -10.0065 C.2       7 UNK         0.5018 
     48 O          27.7286    2.8409  -10.9480 O.2       7 UNK        -0.5186 
     49 N          27.0764    0.8597  -10.0506 N.am      8 UNK        -0.4240 
     50 CA         27.3856    0.0201  -11.2093 C.3       8 UNK         0.0235 
     51 CB         26.6794   -1.3388  -11.0732 C.3       8 UNK        -0.2000 
     52 C          28.8960   -0.1718  -11.4183 C.2       8 UNK         0.4941 
     53 O          29.3702   -0.0330  -12.5466 O.2       8 UNK        -0.5273 
     54 N          29.6185   -0.5037  -10.3400 N.am      9 UNK        -0.4262 
     55 CA         31.0535   -0.7862  -10.3641 C.3       9 UNK         0.0264 
     56 CB         31.4419   -1.5806   -9.1062 C.3       9 UNK        -0.1955 
     57 C          31.9230    0.4732  -10.4881 C.2       9 UNK         0.5031 
     58 O          32.9934    0.3860  -11.0919 O.2       9 UNK        -0.5390 
     59 N          31.4699    1.5979   -9.9069 N.am      10 UNK        -0.4204 
     60 CA         32.1918    2.8711   -9.7709 C.3       10 UNK         0.0237 
     61 CB         32.3862    3.5505  -11.1435 C.3       10 UNK        -0.1985 
     62 C          33.5048    2.6778   -8.9875 C.2       10 UNK         0.4970 
     63 O          34.5872    2.9537   -9.5091 O.2       10 UNK        -0.4914 
     64 N          33.3609    2.1360   -7.7705 N.am      11 UNK        -0.4285 
     65 CA         34.4298    1.6638   -6.8758 C.3       11 UNK         0.1007 
     66 C          35.5529    2.7065   -6.6151 C.2       11 UNK         0.5703 
     67 N          36.8083    2.2788   -6.5967 N.am      11 UNK        -0.7361 
     68 O          35.2895    3.8847   -6.3800 O.2       11 UNK        -0.4986 
     69 C69        33.8587    1.1581   -5.5226 C.3       12 UNK        -0.0947 
     70 S70        32.4039    0.0671   -5.6809 S.3       12 UNK        -0.2240 
     71 C71        33.0817   -1.5994   -5.4366 C.3       12 UNK         0.0194 
     72 H72        25.4165   -7.1656    0.7767 H         1 UNK         0.0906 
     73 H73        25.3357   -7.0304    2.5339 H         1 UNK         0.0906 
     74 H74        23.9794   -6.4868    1.5431 H         1 UNK         0.0906 
     75 H75        26.7094   -5.5886   -0.1375 H         1 UNK         0.3140 
     76 H76        27.5684   -3.2525    1.2707 H         1 UNK         0.1085 
     77 H77        28.7693   -4.6574   -0.6159 H         1 UNK         0.0836 
     78 H78        27.9160   -3.6371   -1.7439 H         1 UNK         0.0836 
     79 H79        31.0897   -4.3060   -0.7388 H         1 UNK         0.0731 
     80 H80        31.9453   -2.7910   -0.7269 H         1 UNK         0.0731 
     81 H81        32.6275   -1.7835   -2.7759 H         1 UNK         0.1312 
     82 H82        31.2955   -3.3876   -6.5252 H         1 UNK         0.1406 
     83 H83        29.6408   -4.8549   -2.8544 H         1 UNK         0.1631 
     84 H84        28.8320   -5.7597   -4.8447 H         1 UNK         0.0717 
     85 H85        30.1274   -5.9420   -5.9980 H         1 UNK         0.0717 
     86 H86        26.4035   -4.0764   -5.5982 H         1 UNK         0.0934 
     87 H87        27.6821   -3.0783   -4.9504 H         1 UNK         0.0934 
     88 H88        26.5792   -2.6573   -7.7682 H         1 UNK         0.0739 
     89 H89        25.1989   -1.7949   -5.3658 H         1 UNK         0.3093 
     90 H90        23.1466    0.5353   -7.1949 H         1 UNK         0.0818 
     91 H91        21.3104   -0.8523   -6.2727 H         1 UNK         0.0819 
     92 H92        22.0744   -1.6900   -7.6121 H         1 UNK         0.0819 
     93 H93        22.4265   -2.1827   -5.9615 H         1 UNK         0.0819 
     94 H94        23.0443   -0.2649   -4.4811 H         1 UNK         0.3041 
     95 H95        25.7159    1.5261   -3.1491 H         1 UNK         0.0784 
     96 H96        24.2075    3.4899   -3.5157 H         1 UNK         0.0793 
     97 H97        22.8175    2.5248   -3.0391 H         1 UNK         0.0793 
     98 H98        24.0887    2.8909   -1.8709 H         1 UNK         0.0793 
     99 H99        23.5172    0.4548   -1.7924 H         1 UNK         0.3024 
    100 H100       23.6696   -1.4552   -0.6944 H         1 UNK         0.1171 
    101 H101       22.6096   -3.5586   -1.5305 H         1 UNK         0.0786 
    102 H102       22.2734   -2.2296   -2.6255 H         1 UNK         0.0786 
    103 H103       23.4924   -3.4231   -3.0513 H         1 UNK         0.0786 
    104 H104       25.1657   -3.8353   -1.2713 H         1 UNK         0.2977 
    105 H105       27.1608   -0.2834   -5.1600 H         1 UNK         0.3127 
    106 H106       29.7360    0.5126   -5.9643 H         1 UNK         0.0770 
    107 H107       27.6183    2.1930   -4.5262 H         1 UNK         0.0814 
    108 H108       29.3431    2.5169   -4.5715 H         1 UNK         0.0814 
    109 H109       28.7502    1.0853   -3.7457 H         1 UNK         0.0814 
    110 H110       26.5518    1.8477   -6.8895 H         1 UNK         0.2983 
    111 H111       27.4919    3.8443   -8.6758 H         1 UNK         0.0947 
    112 H112       25.1255    3.8104   -9.5059 H         1 UNK         0.0806 
    113 H113       25.1896    3.8155   -7.7498 H         1 UNK         0.0806 
    114 H114       24.8273    2.3231   -8.6131 H         1 UNK         0.0806 
    115 H115       26.6753    0.3976   -9.2426 H         1 UNK         0.3000 
    116 H116       26.9895    0.5145  -12.0991 H         1 UNK         0.0850 
    117 H117       26.8928   -1.9785  -11.9306 H         1 UNK         0.0810 
    118 H118       25.5973   -1.2182  -11.0202 H         1 UNK         0.0810 
    119 H119       26.9991   -1.8736  -10.1781 H         1 UNK         0.0810 
    120 H120       29.1457   -0.6377   -9.4445 H         1 UNK         0.3040 
    121 H121       31.2604   -1.4149  -11.2329 H         1 UNK         0.0766 
    122 H122       31.2327   -1.0169   -8.1969 H         1 UNK         0.0812 
    123 H123       32.5057   -1.8215   -9.1046 H         1 UNK         0.0812 
    124 H124       30.8935   -2.5209   -9.0460 H         1 UNK         0.0812 
    125 H125       30.5963    1.5524   -9.3891 H         1 UNK         0.3205 
    126 H126       31.5605    3.5257   -9.1680 H         1 UNK         0.0754 
    127 H127       32.8414    4.5349  -11.0283 H         1 UNK         0.0769 
    128 H128       31.4322    3.6908  -11.6520 H         1 UNK         0.0769 
    129 H129       33.0333    2.9692  -11.8010 H         1 UNK         0.0769 
    130 H130       32.4240    1.9497   -7.4425 H         1 UNK         0.2981 
    131 H131       34.8798    0.8090   -7.3841 H         1 UNK         0.0541 
    132 H132       37.0339    1.3122   -6.7734 H         1 UNK         0.3459 
    133 H133       37.5472    2.9391   -6.4115 H         1 UNK         0.3459 
    134 H134       33.5433    2.0055   -4.9106 H         1 UNK         0.0612 
    135 H135       34.6351    0.6508   -4.9479 H         1 UNK         0.0612 
    136 H136       33.9989   -1.5537   -4.8482 H         1 UNK         0.0624 
    137 H137       33.3562   -2.0197   -6.4052 H         1 UNK         0.0624 
@<TRIPOS>BOND
     1    1    2 1    
     2    1   72 1    
     3    1   73 1    
     4    1   74 1    
     5    2    3 2    
     6    2    4 am   BACKBONE|DICT|INTERRES
     7    4    5 1    
     8    4   75 1    
     9    5    6 1    
    10    5   35 1    
    11    5   76 1    
    12    6    7 1    
    13    6   77 1    
    14    6   78 1    
    15    7    8 1    
    16    8    9 1    
    17    8   79 1    
    18    8   80 1    
    19    9   10 ar   
    20    9   14 ar   
    21   10   11 ar   
    22   10   81 1    
    23   11   12 ar   
    24   11   71 1    
    25   12   13 ar   
    26   12   82 1    
    27   13   14 ar   
    28   13   15 1    
    29   14   83 1    
    30   15   16 1    
    31   15   84 1    
    32   15   85 1    
    33   16   17 1    
    34   17   18 1    
    35   17   86 1    
    36   17   87 1    
    37   18   19 1    
    38   18   37 1    
    39   18   88 1    
    40   19   20 am   BACKBONE|DICT|INTERRES
    41   19   89 1    
    42   20   21 2    
    43   20   22 1    
    44   22   23 1    
    45   22   24 1    
    46   22   90 1    
    47   23   91 1    
    48   23   92 1    
    49   23   93 1    
    50   24   25 am   BACKBONE|DICT|INTERRES
    51   24   94 1    
    52   25   26 2    
    53   25   27 1    
    54   27   28 1    
    55   27   29 1    
    56   27   95 1    
    57   28   96 1    
    58   28   97 1    
    59   28   98 1    
    60   29   30 am   BACKBONE|DICT|INTERRES
    61   29   99 1    
    62   30   31 2    
    63   30   32 1    
    64   32   33 1    
    65   32   34 1    
    66   32  100 1    
    67   33  101 1    
    68   33  102 1    
    69   33  103 1    
    70   34   35 am   BACKBONE|DICT|INTERRES
    71   34  104 1    
    72   35   36 2    
    73   37   38 2    
    74   37   39 am   BACKBONE|DICT|INTERRES
    75   39   40 1    
    76   39  105 1    
    77   40   41 1    
    78   40   42 1    
    79   40  106 1    
    80   41  107 1    
    81   41  108 1    
    82   41  109 1    
    83   42   43 2    
    84   42   44 am   BACKBONE|DICT|INTERRES
    85   44   45 1    
    86   44  110 1    
    87   45   46 1    
    88   45   47 1    
    89   45  111 1    
    90   46  112 1    
    91   46  113 1    
    92   46  114 1    
    93   47   48 2    
    94   47   49 am   BACKBONE|DICT|INTERRES
    95   49   50 1    
    96   49  115 1    
    97   50   51 1    
    98   50   52 1    
    99   50  116 1    
   100   51  117 1    
   101   51  118 1    
   102   51  119 1    
   103   52   53 2    
   104   52   54 am   BACKBONE|DICT|INTERRES
   105   54   55 1    
   106   54  120 1    
   107   55   56 1    
   108   55   57 1    
   109   55  121 1    
   110   56  122 1    
   111   56  123 1    
   112   56  124 1    
   113   57   58 2    
   114   57   59 am   BACKBONE|DICT|INTERRES
   115   59   60 1    
   116   59  125 1    
   117   60   61 1    
   118   60   62 1    
   119   60  126 1    
   120   61  127 1    
   121   61  128 1    
   122   61  129 1    
   123   62   63 2    
   124   62   64 am   BACKBONE|DICT|INTERRES
   125   64   65 1    
   126   64  130 1    
   127   65   66 1    
   128   65   69 1    
   129   65  131 1    
   130   66   67 am   BACKBONE|DICT|INTERRES
   131   66   68 2    
   132   67  132 1    
   133   67  133 1    
   134   69   70 1    
   135   69  134 1    
   136   69  135 1    
   137   70   71 1    
   138   71  136 1    
   139   71  137 1    
@<TRIPOS>SUBSTRUCTURE
     1 UNK         1 GROUP             0       ****    0 ROOT    
