@<TRIPOS>MOLECULE
3R137
137   139    1
SMALL
USER_CHARGES


@<TRIPOS>ATOM
      1 CA         30.7455    1.5843   -2.8364 C.3       0 UNK        -0.2020 
      2 C          29.9580    0.2849   -2.7650 C.2       0 UNK         0.4855 
      3 O          29.4197   -0.1575   -3.7766 O.2       0 UNK        -0.5197 
      4 N          29.8906   -0.3389   -1.5820 N.am      1 UNK        -0.4892 
      5 CA         29.1608   -1.5918   -1.3652 C.3       1 UNK         0.0835 
      6 C6         29.5814   -2.3030   -0.0562 C.3       12 UNK        -0.0855 
      7 S7         31.3274   -2.8306   -0.0634 S.3       12 UNK        -0.2931 
      8 C8         31.1867   -4.5826   -0.5477 C.3       12 UNK         0.0378 
      9 C9         31.0732   -4.7405   -2.0576 C.ar      12 UNK        -0.0802 
     10 C10        32.2323   -4.8075   -2.8341 C.ar      12 UNK        -0.0944 
     11 C11        32.1502   -4.9721   -4.2184 C.ar      12 UNK        -0.0787 
     12 C12        30.8950   -5.0453   -4.8295 C.ar      12 UNK        -0.0862 
     13 C13        29.7217   -4.9513   -4.0703 C.ar      12 UNK        -0.0733 
     14 C14        29.8229   -4.8319   -2.6789 C.ar      12 UNK        -0.0832 
     15 C15        28.3405   -5.0226   -4.7229 C.3       12 UNK         0.0240 
     16 S16        28.2315   -4.2378   -6.3701 S.3       12 UNK        -0.2522 
     17 C17        28.3695   -2.4567   -5.9917 C.3       12 UNK        -0.0967 
     18 CA         27.5174   -1.6120   -6.9734 C.3       5 UNK         0.0660 
     19 N          26.0802   -1.8671   -6.8375 N.am      5 UNK        -0.4015 
     20 C          25.1547   -1.5184   -7.7415 C.2       4 UNK         0.4946 
     21 O          25.4131   -0.9659   -8.8114 O.2       4 UNK        -0.5353 
     22 CA         23.6885   -1.8114   -7.3772 C.3       4 UNK         0.0277 
     23 CB         23.3499   -3.2886   -7.6350 C.3       4 UNK        -0.1981 
     24 N          23.3620   -1.4644   -5.9906 N.am      4 UNK        -0.4209 
     25 C          23.3516   -0.2118   -5.5125 C.2       3 UNK         0.4942 
     26 O          23.5845    0.7822   -6.1969 O.2       3 UNK        -0.5208 
     27 CA         23.0757   -0.0293   -4.0096 C.3       3 UNK         0.0250 
     28 CB         21.5620    0.0052   -3.7439 C.3       3 UNK        -0.1990 
     29 N          23.7060   -1.0213   -3.1287 N.am      3 UNK        -0.4232 
     30 C          24.9989   -1.3755   -3.1404 C.2       2 UNK         0.4993 
     31 O          25.8083   -1.0017   -3.9912 O.2       2 UNK        -0.5286 
     32 CA         25.4467   -2.3536   -2.0430 C.3       2 UNK         0.0209 
     33 CB         24.9685   -3.7793   -2.3684 C.3       2 UNK        -0.1931 
     34 N          26.9036   -2.3687   -1.8914 N.am      2 UNK        -0.4546 
     35 C          27.6352   -1.3689   -1.3800 C.2       1 UNK         0.5154 
     36 O          27.1540   -0.3451   -0.8860 O.2       1 UNK        -0.5181 
     37 C          27.8186   -0.1066   -6.8516 C.2       5 UNK         0.5014 
     38 O          28.6033    0.4155   -7.6449 O.2       5 UNK        -0.5248 
     39 N          27.1427    0.5727   -5.9141 N.am      6 UNK        -0.4434 
     40 CA         27.2226    2.0178   -5.7079 C.3       6 UNK         0.0363 
     41 CB         26.4687    2.4006   -4.4255 C.3       6 UNK        -0.1936 
     42 C          26.7078    2.8183   -6.9158 C.2       6 UNK         0.5081 
     43 O          27.3746    3.7645   -7.3328 O.2       6 UNK        -0.5248 
     44 N          25.5657    2.4076   -7.4890 N.am      7 UNK        -0.4718 
     45 CA         24.9845    2.9939   -8.7032 C.3       7 UNK         0.0273 
     46 CB         23.5802    2.4174   -8.9415 C.3       7 UNK        -0.1935 
     47 C          25.8627    2.7978   -9.9501 C.2       7 UNK         0.5018 
     48 O          25.9396    3.7021  -10.7825 O.2       7 UNK        -0.5186 
     49 N          26.5339    1.6413  -10.0408 N.am      8 UNK        -0.4240 
     50 CA         27.5329    1.3387  -11.0696 C.3       8 UNK         0.0235 
     51 CB         27.7461   -0.1838  -11.1229 C.3       8 UNK        -0.2000 
     52 C          28.8790    2.0600  -10.8538 C.2       8 UNK         0.4941 
     53 O          29.7100    2.0412  -11.7629 O.2       8 UNK        -0.5273 
     54 N          29.0816    2.6515   -9.6649 N.am      9 UNK        -0.4262 
     55 CA         30.3166    3.2639   -9.1609 C.3       9 UNK         0.0264 
     56 CB         30.6771    4.5306   -9.9658 C.3       9 UNK        -0.1955 
     57 C          31.4786    2.2551   -9.0602 C.2       9 UNK         0.5031 
     58 O          32.6327    2.6151   -9.3044 O.2       9 UNK        -0.5390 
     59 N          31.1510    1.0055   -8.7115 N.am      10 UNK        -0.4204 
     60 CA         32.0949   -0.0958   -8.5614 C.3       10 UNK         0.0237 
     61 CB         31.3902   -1.4051   -8.9569 C.3       10 UNK        -0.1985 
     62 C          32.5916   -0.1781   -7.1132 C.2       10 UNK         0.4970 
     63 O          31.8413    0.1378   -6.1888 O.2       10 UNK        -0.4914 
     64 N          33.8324   -0.6528   -6.9523 N.am      11 UNK        -0.4285 
     65 CA         34.4491   -1.0434   -5.6702 C.3       11 UNK         0.1007 
     66 C          34.6810    0.1171   -4.6535 C.2       11 UNK         0.5703 
     67 N          34.6300    1.3780   -5.0666 N.am      11 UNK        -0.7361 
     68 O          34.9534   -0.1249   -3.4799 O.2       11 UNK        -0.4986 
     69 C69        33.7466   -2.2769   -5.0297 C.3       12 UNK        -0.0947 
     70 S70        33.6211   -3.6829   -6.1895 S.3       12 UNK        -0.2240 
     71 C71        33.4193   -5.0849   -5.0505 C.3       12 UNK         0.0194 
     72 H72        30.0910    2.4014   -3.1384 H         1 UNK         0.0906 
     73 H73        31.5415    1.4946   -3.5761 H         1 UNK         0.0906 
     74 H74        31.1974    1.8424   -1.8790 H         1 UNK         0.0906 
     75 H75        30.3341    0.0621   -0.7685 H         1 UNK         0.3140 
     76 H76        29.4057   -2.2415   -2.2061 H         1 UNK         0.1085 
     77 H77        28.9528   -3.1751    0.1345 H         1 UNK         0.0836 
     78 H78        29.4306   -1.6408    0.7987 H         1 UNK         0.0836 
     79 H79        32.0734   -5.1110   -0.1937 H         1 UNK         0.0731 
     80 H80        30.3413   -5.0522   -0.0426 H         1 UNK         0.0731 
     81 H81        33.2003   -4.7402   -2.3563 H         1 UNK         0.1312 
     82 H82        30.8389   -5.1696   -5.9021 H         1 UNK         0.1406 
     83 H83        28.9280   -4.8036   -2.0736 H         1 UNK         0.1631 
     84 H84        27.5871   -4.5728   -4.0766 H         1 UNK         0.0717 
     85 H85        28.0679   -6.0736   -4.8265 H         1 UNK         0.0717 
     86 H86        28.0685   -2.2686   -4.9594 H         1 UNK         0.0934 
     87 H87        29.4243   -2.1790   -6.0535 H         1 UNK         0.0934 
     88 H88        27.8033   -1.9006   -7.9874 H         1 UNK         0.0739 
     89 H89        25.7782   -2.2362   -5.9475 H         1 UNK         0.3093 
     90 H90        23.0610   -1.2008   -8.0304 H         1 UNK         0.0818 
     91 H91        23.5702   -3.5632   -8.6677 H         1 UNK         0.0819 
     92 H92        23.9238   -3.9566   -6.9914 H         1 UNK         0.0819 
     93 H93        22.2912   -3.4879   -7.4681 H         1 UNK         0.0819 
     94 H94        23.1585   -2.2234   -5.3570 H         1 UNK         0.3041 
     95 H95        23.4854    0.9421   -3.7274 H         1 UNK         0.0784 
     96 H96        21.0715    0.7483   -4.3747 H         1 UNK         0.0793 
     97 H97        21.0926   -0.9576   -3.9495 H         1 UNK         0.0793 
     98 H98        21.3454    0.2710   -2.7090 H         1 UNK         0.0793 
     99 H99        23.1133   -1.4067   -2.4072 H         1 UNK         0.3024 
    100 H100       25.0080   -2.0335   -1.0949 H         1 UNK         0.1171 
    101 H101       23.8794   -3.8325   -2.3967 H         1 UNK         0.0786 
    102 H102       25.3328   -4.1191   -3.3384 H         1 UNK         0.0786 
    103 H103       25.3018   -4.4931   -1.6147 H         1 UNK         0.0786 
    104 H104       27.3792   -3.1588   -2.2949 H         1 UNK         0.2977 
    105 H105       26.5660    0.0448   -5.2597 H         1 UNK         0.3127 
    106 H106       28.2772    2.2654   -5.5675 H         1 UNK         0.0770 
    107 H107       25.4038    2.1833   -4.5051 H         1 UNK         0.0814 
    108 H108       26.5712    3.4660   -4.2165 H         1 UNK         0.0814 
    109 H109       26.8575    1.8586   -3.5624 H         1 UNK         0.0814 
    110 H110       25.0355    1.6570   -7.0513 H         1 UNK         0.2983 
    111 H111       24.8882    4.0692   -8.5383 H         1 UNK         0.0947 
    112 H112       23.6050    1.3332   -9.0595 H         1 UNK         0.0806 
    113 H113       23.1316    2.8358   -9.8436 H         1 UNK         0.0806 
    114 H114       22.9120    2.6482   -8.1118 H         1 UNK         0.0806 
    115 H115       26.3658    0.9246   -9.3428 H         1 UNK         0.3000 
    116 H116       27.1415    1.6630  -12.0361 H         1 UNK         0.0850 
    117 H117       28.4496   -0.4546  -11.9113 H         1 UNK         0.0810 
    118 H118       26.8127   -0.7087  -11.3270 H         1 UNK         0.0810 
    119 H119       28.1463   -0.5673  -10.1838 H         1 UNK         0.0810 
    120 H120       28.3311    2.5994   -8.9865 H         1 UNK         0.3040 
    121 H121       30.1007    3.5746   -8.1376 H         1 UNK         0.0766 
    122 H122       30.9694    4.2919  -10.9887 H         1 UNK         0.0812 
    123 H123       31.5115    5.0610   -9.5056 H         1 UNK         0.0812 
    124 H124       29.8374    5.2242  -10.0089 H         1 UNK         0.0812 
    125 H125       30.1931    0.8168   -8.4134 H         1 UNK         0.3205 
    126 H126       32.9463    0.0567   -9.2284 H         1 UNK         0.0754 
    127 H127       32.0704   -2.2547   -8.8827 H         1 UNK         0.0769 
    128 H128       31.0284   -1.3656   -9.9847 H         1 UNK         0.0769 
    129 H129       30.5371   -1.6147   -8.3104 H         1 UNK         0.0769 
    130 H130       34.3792   -0.8675   -7.7732 H         1 UNK         0.2981 
    131 H131       35.4580   -1.3621   -5.9341 H         1 UNK         0.0541 
    132 H132       34.7976    2.1213   -4.4076 H         1 UNK         0.3459 
    133 H133       34.4080    1.5905   -6.0259 H         1 UNK         0.3459 
    134 H134       32.7430   -2.0176   -4.6872 H         1 UNK         0.0612 
    135 H135       34.2956   -2.6116   -4.1479 H         1 UNK         0.0612 
    136 H136       33.3840   -6.0073   -5.6316 H         1 UNK         0.0624 
    137 H137       34.3024   -5.1564   -4.4137 H         1 UNK         0.0624 
@<TRIPOS>BOND
     1    1    2 1    
     2    1   72 1    
     3    1   73 1    
     4    1   74 1    
     5    2    3 2    
     6    2    4 am   BACKBONE|DICT|INTERRES
     7    4    5 1    
     8    4   75 1    
     9    5    6 1    
    10    5   35 1    
    11    5   76 1    
    12    6    7 1    
    13    6   77 1    
    14    6   78 1    
    15    7    8 1    
    16    8    9 1    
    17    8   79 1    
    18    8   80 1    
    19    9   10 ar   
    20    9   14 ar   
    21   10   11 ar   
    22   10   81 1    
    23   11   12 ar   
    24   11   71 1    
    25   12   13 ar   
    26   12   82 1    
    27   13   14 ar   
    28   13   15 1    
    29   14   83 1    
    30   15   16 1    
    31   15   84 1    
    32   15   85 1    
    33   16   17 1    
    34   17   18 1    
    35   17   86 1    
    36   17   87 1    
    37   18   19 1    
    38   18   37 1    
    39   18   88 1    
    40   19   20 am   BACKBONE|DICT|INTERRES
    41   19   89 1    
    42   20   21 2    
    43   20   22 1    
    44   22   23 1    
    45   22   24 1    
    46   22   90 1    
    47   23   91 1    
    48   23   92 1    
    49   23   93 1    
    50   24   25 am   BACKBONE|DICT|INTERRES
    51   24   94 1    
    52   25   26 2    
    53   25   27 1    
    54   27   28 1    
    55   27   29 1    
    56   27   95 1    
    57   28   96 1    
    58   28   97 1    
    59   28   98 1    
    60   29   30 am   BACKBONE|DICT|INTERRES
    61   29   99 1    
    62   30   31 2    
    63   30   32 1    
    64   32   33 1    
    65   32   34 1    
    66   32  100 1    
    67   33  101 1    
    68   33  102 1    
    69   33  103 1    
    70   34   35 am   BACKBONE|DICT|INTERRES
    71   34  104 1    
    72   35   36 2    
    73   37   38 2    
    74   37   39 am   BACKBONE|DICT|INTERRES
    75   39   40 1    
    76   39  105 1    
    77   40   41 1    
    78   40   42 1    
    79   40  106 1    
    80   41  107 1    
    81   41  108 1    
    82   41  109 1    
    83   42   43 2    
    84   42   44 am   BACKBONE|DICT|INTERRES
    85   44   45 1    
    86   44  110 1    
    87   45   46 1    
    88   45   47 1    
    89   45  111 1    
    90   46  112 1    
    91   46  113 1    
    92   46  114 1    
    93   47   48 2    
    94   47   49 am   BACKBONE|DICT|INTERRES
    95   49   50 1    
    96   49  115 1    
    97   50   51 1    
    98   50   52 1    
    99   50  116 1    
   100   51  117 1    
   101   51  118 1    
   102   51  119 1    
   103   52   53 2    
   104   52   54 am   BACKBONE|DICT|INTERRES
   105   54   55 1    
   106   54  120 1    
   107   55   56 1    
   108   55   57 1    
   109   55  121 1    
   110   56  122 1    
   111   56  123 1    
   112   56  124 1    
   113   57   58 2    
   114   57   59 am   BACKBONE|DICT|INTERRES
   115   59   60 1    
   116   59  125 1    
   117   60   61 1    
   118   60   62 1    
   119   60  126 1    
   120   61  127 1    
   121   61  128 1    
   122   61  129 1    
   123   62   63 2    
   124   62   64 am   BACKBONE|DICT|INTERRES
   125   64   65 1    
   126   64  130 1    
   127   65   66 1    
   128   65   69 1    
   129   65  131 1    
   130   66   67 am   BACKBONE|DICT|INTERRES
   131   66   68 2    
   132   67  132 1    
   133   67  133 1    
   134   69   70 1    
   135   69  134 1    
   136   69  135 1    
   137   70   71 1    
   138   71  136 1    
   139   71  137 1    
@<TRIPOS>SUBSTRUCTURE
     1 UNK         1 GROUP             0       ****    0 ROOT    
