@<TRIPOS>MOLECULE
3R137
137   139    1
SMALL
USER_CHARGES


@<TRIPOS>ATOM
      1 CA         30.0518   -5.0109   -1.1837 C.3       0 UNK        -0.2020 
      2 C          28.9680   -4.1203   -0.5957 C.2       0 UNK         0.4855 
      3 O          28.2063   -4.5643    0.2633 O.2       0 UNK        -0.5197 
      4 N          28.9011   -2.8624   -1.0495 N.am      1 UNK        -0.4892 
      5 CA         27.9713   -1.8299   -0.5691 C.3       1 UNK         0.0835 
      6 C6         28.3289   -0.4262   -1.1203 C.3       12 UNK        -0.0855 
      7 S7         30.0454    0.0820   -0.7672 S.3       12 UNK        -0.2931 
      8 C8         30.7298    0.2701   -2.4437 C.3       12 UNK         0.0378 
      9 C9         31.2218   -1.0537   -3.0120 C.ar      12 UNK        -0.0802 
     10 C10        32.5556   -1.4335   -2.8308 C.ar      12 UNK        -0.0944 
     11 C11        33.0402   -2.6171   -3.3928 C.ar      12 UNK        -0.0787 
     12 C12        32.1703   -3.4429   -4.1080 C.ar      12 UNK        -0.0862 
     13 C13        30.8329   -3.0820   -4.2891 C.ar      12 UNK        -0.0733 
     14 C14        30.3660   -1.8778   -3.7501 C.ar      12 UNK        -0.0832 
     15 C15        29.9030   -4.0132   -5.0525 C.3       12 UNK         0.0240 
     16 S16        29.3238   -3.2713   -6.6075 S.3       12 UNK        -0.2522 
     17 C17        27.6175   -2.8402   -6.1414 C.3       12 UNK        -0.0967 
     18 CA         26.9765   -1.8106   -7.0973 C.3       5 UNK         0.0660 
     19 N          25.5167   -1.8516   -7.0173 N.am      5 UNK        -0.4015 
     20 C          24.6851   -1.3625   -7.9462 C.2       4 UNK         0.4946 
     21 O          25.0603   -0.8564   -9.0024 O.2       4 UNK        -0.5353 
     22 CA         23.1800   -1.4284   -7.6336 C.3       4 UNK         0.0277 
     23 CB         22.5855   -2.7570   -8.1270 C.3       4 UNK        -0.1981 
     24 N          22.8836   -1.2573   -6.2082 N.am      4 UNK        -0.4209 
     25 C          23.0812   -0.1174   -5.5311 C.2       3 UNK         0.4942 
     26 O          23.4995    0.9196   -6.0444 O.2       3 UNK        -0.5208 
     27 CA         22.8217   -0.1576   -4.0159 C.3       3 UNK         0.0250 
     28 CB         21.3270    0.0405   -3.7173 C.3       3 UNK        -0.1990 
     29 N          23.3017   -1.3801   -3.3572 N.am      3 UNK        -0.4232 
     30 C          24.5739   -1.8008   -3.3659 C.2       2 UNK         0.4993 
     31 O          25.4712   -1.2591   -4.0172 O.2       2 UNK        -0.5286 
     32 CA         24.9055   -3.0564   -2.5447 C.3       2 UNK         0.0209 
     33 CB         24.8890   -4.3063   -3.4388 C.3       2 UNK        -0.1931 
     34 N          26.2306   -2.9130   -1.9400 N.am      2 UNK        -0.4546 
     35 C          26.4897   -2.1236   -0.8882 C.2       1 UNK         0.5154 
     36 O          25.6110   -1.5969   -0.2031 O.2       1 UNK        -0.5181 
     37 C          27.4973   -0.3816   -6.8553 C.2       5 UNK         0.5014 
     38 O          28.3619    0.0834   -7.5973 O.2       5 UNK        -0.5248 
     39 N          26.9277    0.3136   -5.8599 N.am      6 UNK        -0.4434 
     40 CA         27.1830    1.7295   -5.5864 C.3       6 UNK         0.0363 
     41 CB         26.4543    2.1498   -4.3009 C.3       6 UNK        -0.1936 
     42 C          26.7967    2.6342   -6.7712 C.2       6 UNK         0.5081 
     43 O          27.5839    3.5028   -7.1463 O.2       6 UNK        -0.5248 
     44 N          25.6333    2.3729   -7.3870 N.am      7 UNK        -0.4718 
     45 CA         25.1712    3.0325   -8.6151 C.3       7 UNK         0.0273 
     46 CB         23.7242    2.6110   -8.9138 C.3       7 UNK        -0.1935 
     47 C          26.0750    2.7658   -9.8343 C.2       7 UNK         0.5018 
     48 O          26.2284    3.6516  -10.6753 O.2       7 UNK        -0.5186 
     49 N          26.6900    1.5761   -9.8871 N.am      8 UNK        -0.4240 
     50 CA         27.7016    1.1834  -10.8739 C.3       8 UNK         0.0235 
     51 CB         27.6964   -0.3490  -11.0172 C.3       8 UNK        -0.2000 
     52 C          29.1185    1.7089  -10.5535 C.2       8 UNK         0.4941 
     53 O          30.0554    1.3512  -11.2685 O.2       8 UNK        -0.5273 
     54 N          29.2548    2.5455   -9.5130 N.am      9 UNK        -0.4262 
     55 CA         30.4771    3.2000   -9.0370 C.3       9 UNK         0.0264 
     56 CB         31.1296    4.0704  -10.1342 C.3       9 UNK        -0.1955 
     57 C          31.4668    2.2495   -8.3364 C.2       9 UNK         0.5031 
     58 O          32.6744    2.4969   -8.3843 O.2       9 UNK        -0.5390 
     59 N          30.9380    1.2306   -7.6397 N.am      10 UNK        -0.4204 
     60 CA         31.6424    0.3123   -6.7359 C.3       10 UNK         0.0237 
     61 CB         32.2775    1.1079   -5.5689 C.3       10 UNK        -0.1985 
     62 C          32.6479   -0.6133   -7.4507 C.2       10 UNK         0.4970 
     63 O          32.6081   -0.7569   -8.6746 O.2       10 UNK        -0.4914 
     64 N          33.5250   -1.2445   -6.6608 N.am      11 UNK        -0.4285 
     65 CA         34.6493   -2.0747   -7.1187 C.3       11 UNK         0.1007 
     66 C          35.8202   -1.2947   -7.7912 C.2       11 UNK         0.5703 
     67 N          35.8300    0.0334   -7.7956 N.am      11 UNK        -0.7361 
     68 O          36.7343   -1.9111   -8.3343 O.2       11 UNK        -0.4986 
     69 C69        35.1502   -3.0256   -5.9957 C.3       12 UNK        -0.0947 
     70 S70        35.5796   -2.1748   -4.4328 S.3       12 UNK        -0.2240 
     71 C71        34.5012   -3.0066   -3.2211 C.3       12 UNK         0.0194 
     72 H72        30.8516   -4.4261   -1.6370 H         1 UNK         0.0906 
     73 H73        30.4948   -5.6312   -0.4050 H         1 UNK         0.0906 
     74 H74        29.6299   -5.6671   -1.9443 H         1 UNK         0.0906 
     75 H75        29.5956   -2.5404   -1.7105 H         1 UNK         0.3140 
     76 H76        28.0573   -1.7996    0.5195 H         1 UNK         0.1085 
     77 H77        28.1405   -0.3776   -2.1944 H         1 UNK         0.0836 
     78 H78        27.6761    0.3282   -0.6759 H         1 UNK         0.0836 
     79 H79        29.9924    0.7242   -3.1078 H         1 UNK         0.0731 
     80 H80        31.5589    0.9779   -2.3970 H         1 UNK         0.0731 
     81 H81        33.2252   -0.7953   -2.2699 H         1 UNK         0.1312 
     82 H82        32.5359   -4.3711   -4.5249 H         1 UNK         0.1406 
     83 H83        29.3397   -1.5796   -3.9091 H         1 UNK         0.1631 
     84 H84        30.4117   -4.9475   -5.2953 H         1 UNK         0.0717 
     85 H85        29.0608   -4.2912   -4.4175 H         1 UNK         0.0717 
     86 H86        27.0494   -3.7713   -6.1695 H         1 UNK         0.0934 
     87 H87        27.5776   -2.4964   -5.1070 H         1 UNK         0.0934 
     88 H88        27.2464   -2.0875   -8.1190 H         1 UNK         0.0739 
     89 H89        25.1249   -2.1799   -6.1468 H         1 UNK         0.3093 
     90 H90        22.6952   -0.6151   -8.1780 H         1 UNK         0.0818 
     91 H91        21.5046   -2.7842   -7.9878 H         1 UNK         0.0819 
     92 H92        22.7761   -2.8964   -9.1922 H         1 UNK         0.0819 
     93 H93        23.0141   -3.6135   -7.6049 H         1 UNK         0.0819 
     94 H94        22.5276   -2.0598   -5.7092 H         1 UNK         0.3041 
     95 H95        23.3670    0.6796   -3.5751 H         1 UNK         0.0784 
     96 H96        20.9534    0.9525   -4.1855 H         1 UNK         0.0793 
     97 H97        20.7244   -0.7882   -4.0912 H         1 UNK         0.0793 
     98 H98        21.1449    0.1322   -2.6463 H         1 UNK         0.0793 
     99 H99        22.6231   -1.8911   -2.8104 H         1 UNK         0.3024 
    100 H100       24.1637   -3.1763   -1.7515 H         1 UNK         0.1171 
    101 H101       25.1091   -5.2055   -2.8630 H         1 UNK         0.0786 
    102 H102       23.9089   -4.4489   -3.8961 H         1 UNK         0.0786 
    103 H103       25.6195   -4.2403   -4.2449 H         1 UNK         0.0786 
    104 H104       27.0131   -3.2908   -2.4515 H         1 UNK         0.2977 
    105 H105       26.2593   -0.1604   -5.2539 H         1 UNK         0.3127 
    106 H106       28.2566    1.8425   -5.4204 H         1 UNK         0.0770 
    107 H107       25.3729    2.0535   -4.3989 H         1 UNK         0.0814 
    108 H108       26.6684    3.1906   -4.0550 H         1 UNK         0.0814 
    109 H109       26.7674    1.5434   -3.4508 H         1 UNK         0.0814 
    110 H110       25.0069    1.6845   -6.9759 H         1 UNK         0.2983 
    111 H111       25.1815    4.1093   -8.4329 H         1 UNK         0.0947 
    112 H112       23.3444    3.1190   -9.8013 H         1 UNK         0.0806 
    113 H113       23.0590    2.8613   -8.0872 H         1 UNK         0.0806 
    114 H114       23.6463    1.5386   -9.0931 H         1 UNK         0.0806 
    115 H115       26.4681    0.8888   -9.1767 H         1 UNK         0.3000 
    116 H116       27.4210    1.6079  -11.8400 H         1 UNK         0.0850 
    117 H117       28.3687   -0.6721  -11.8129 H         1 UNK         0.0810 
    118 H118       26.7024   -0.7218  -11.2648 H         1 UNK         0.0810 
    119 H119       28.0202   -0.8401  -10.1000 H         1 UNK         0.0810 
    120 H120       28.4294    2.7488   -8.9604 H         1 UNK         0.3040 
    121 H121       30.1430    3.8836   -8.2552 H         1 UNK         0.0766 
    122 H122       30.4023    4.7354  -10.5998 H         1 UNK         0.0812 
    123 H123       31.5837    3.4641  -10.9182 H         1 UNK         0.0812 
    124 H124       31.9182    4.6971   -9.7161 H         1 UNK         0.0812 
    125 H125       29.9417    1.0387   -7.7383 H         1 UNK         0.3205 
    126 H126       30.8765   -0.3428   -6.3182 H         1 UNK         0.0754 
    127 H127       33.0873    1.7548   -5.9067 H         1 UNK         0.0769 
    128 H128       32.6975    0.4561   -4.8068 H         1 UNK         0.0769 
    129 H129       31.5367    1.7369   -5.0753 H         1 UNK         0.0769 
    130 H130       33.4812   -1.0994   -5.6626 H         1 UNK         0.2981 
    131 H131       34.2562   -2.7151   -7.9104 H         1 UNK         0.0541 
    132 H132       35.0732    0.5533   -7.3820 H         1 UNK         0.3459 
    133 H133       36.5923    0.5188   -8.2412 H         1 UNK         0.3459 
    134 H134       36.0221   -3.5931   -6.3258 H         1 UNK         0.0612 
    135 H135       34.3875   -3.7779   -5.8004 H         1 UNK         0.0612 
    136 H136       34.8325   -2.7384   -2.2169 H         1 UNK         0.0624 
    137 H137       34.6268   -4.0874   -3.3032 H         1 UNK         0.0624 
@<TRIPOS>BOND
     1    1    2 1    
     2    1   72 1    
     3    1   73 1    
     4    1   74 1    
     5    2    3 2    
     6    2    4 am   BACKBONE|DICT|INTERRES
     7    4    5 1    
     8    4   75 1    
     9    5    6 1    
    10    5   35 1    
    11    5   76 1    
    12    6    7 1    
    13    6   77 1    
    14    6   78 1    
    15    7    8 1    
    16    8    9 1    
    17    8   79 1    
    18    8   80 1    
    19    9   10 ar   
    20    9   14 ar   
    21   10   11 ar   
    22   10   81 1    
    23   11   12 ar   
    24   11   71 1    
    25   12   13 ar   
    26   12   82 1    
    27   13   14 ar   
    28   13   15 1    
    29   14   83 1    
    30   15   16 1    
    31   15   84 1    
    32   15   85 1    
    33   16   17 1    
    34   17   18 1    
    35   17   86 1    
    36   17   87 1    
    37   18   19 1    
    38   18   37 1    
    39   18   88 1    
    40   19   20 am   BACKBONE|DICT|INTERRES
    41   19   89 1    
    42   20   21 2    
    43   20   22 1    
    44   22   23 1    
    45   22   24 1    
    46   22   90 1    
    47   23   91 1    
    48   23   92 1    
    49   23   93 1    
    50   24   25 am   BACKBONE|DICT|INTERRES
    51   24   94 1    
    52   25   26 2    
    53   25   27 1    
    54   27   28 1    
    55   27   29 1    
    56   27   95 1    
    57   28   96 1    
    58   28   97 1    
    59   28   98 1    
    60   29   30 am   BACKBONE|DICT|INTERRES
    61   29   99 1    
    62   30   31 2    
    63   30   32 1    
    64   32   33 1    
    65   32   34 1    
    66   32  100 1    
    67   33  101 1    
    68   33  102 1    
    69   33  103 1    
    70   34   35 am   BACKBONE|DICT|INTERRES
    71   34  104 1    
    72   35   36 2    
    73   37   38 2    
    74   37   39 am   BACKBONE|DICT|INTERRES
    75   39   40 1    
    76   39  105 1    
    77   40   41 1    
    78   40   42 1    
    79   40  106 1    
    80   41  107 1    
    81   41  108 1    
    82   41  109 1    
    83   42   43 2    
    84   42   44 am   BACKBONE|DICT|INTERRES
    85   44   45 1    
    86   44  110 1    
    87   45   46 1    
    88   45   47 1    
    89   45  111 1    
    90   46  112 1    
    91   46  113 1    
    92   46  114 1    
    93   47   48 2    
    94   47   49 am   BACKBONE|DICT|INTERRES
    95   49   50 1    
    96   49  115 1    
    97   50   51 1    
    98   50   52 1    
    99   50  116 1    
   100   51  117 1    
   101   51  118 1    
   102   51  119 1    
   103   52   53 2    
   104   52   54 am   BACKBONE|DICT|INTERRES
   105   54   55 1    
   106   54  120 1    
   107   55   56 1    
   108   55   57 1    
   109   55  121 1    
   110   56  122 1    
   111   56  123 1    
   112   56  124 1    
   113   57   58 2    
   114   57   59 am   BACKBONE|DICT|INTERRES
   115   59   60 1    
   116   59  125 1    
   117   60   61 1    
   118   60   62 1    
   119   60  126 1    
   120   61  127 1    
   121   61  128 1    
   122   61  129 1    
   123   62   63 2    
   124   62   64 am   BACKBONE|DICT|INTERRES
   125   64   65 1    
   126   64  130 1    
   127   65   66 1    
   128   65   69 1    
   129   65  131 1    
   130   66   67 am   BACKBONE|DICT|INTERRES
   131   66   68 2    
   132   67  132 1    
   133   67  133 1    
   134   69   70 1    
   135   69  134 1    
   136   69  135 1    
   137   70   71 1    
   138   71  136 1    
   139   71  137 1    
@<TRIPOS>SUBSTRUCTURE
     1 UNK         1 GROUP             0       ****    0 ROOT    
