@<TRIPOS>MOLECULE
3R137
137   139    1
SMALL
USER_CHARGES


@<TRIPOS>ATOM
      1 CA         24.3081   -5.8257   -4.0086 C.3       0 UNK        -0.2020 
      2 C          24.8775   -4.9643   -2.8921 C.2       0 UNK         0.4855 
      3 O          24.1240   -4.2693   -2.2099 O.2       0 UNK        -0.5197 
      4 N          26.2048   -4.9917   -2.7103 N.am      1 UNK        -0.4892 
      5 CA         26.9496   -4.2054   -1.7202 C.3       1 UNK         0.0835 
      6 C6         28.4443   -4.6042   -1.7204 C.3       12 UNK        -0.0855 
      7 S7         29.3482   -3.9445   -0.2800 S.3       12 UNK        -0.2931 
      8 C8         31.0395   -3.8146   -0.9451 C.3       12 UNK         0.0378 
      9 C9         31.1648   -2.7544   -2.0324 C.ar      12 UNK        -0.0802 
     10 C10        31.4590   -3.1224   -3.3485 C.ar      12 UNK        -0.0944 
     11 C11        31.6217   -2.1493   -4.3389 C.ar      12 UNK        -0.0787 
     12 C12        31.4833   -0.7977   -4.0078 C.ar      12 UNK        -0.0862 
     13 C13        31.1730   -0.4159   -2.6968 C.ar      12 UNK        -0.0733 
     14 C14        31.0203   -1.4010   -1.7153 C.ar      12 UNK        -0.0832 
     15 C15        31.0237    1.0535   -2.3107 C.3       12 UNK         0.0240 
     16 S16        30.0101    2.0401   -3.4639 S.3       12 UNK        -0.2522 
     17 C17        28.4629    1.0786   -3.5785 C.3       12 UNK        -0.0967 
     18 CA         28.0743    0.8131   -5.0567 C.3       5 UNK         0.0660 
     19 N          27.3711   -0.4649   -5.2197 N.am      5 UNK        -0.4015 
     20 C          26.9606   -0.9870   -6.3858 C.2       4 UNK         0.4946 
     21 O          27.1493   -0.4624   -7.4807 O.2       4 UNK        -0.5353 
     22 CA         26.1223   -2.2713   -6.3160 C.3       4 UNK         0.0277 
     23 CB         27.0044   -3.5130   -6.1017 C.3       4 UNK        -0.1981 
     24 N          25.1077   -2.1686   -5.2663 N.am      4 UNK        -0.4209 
     25 C          23.9974   -1.4219   -5.3734 C.2       3 UNK         0.4942 
     26 O          23.6579   -0.8482   -6.4080 O.2       3 UNK        -0.5208 
     27 CA         23.1368   -1.2516   -4.1095 C.3       3 UNK         0.0250 
     28 CB         22.0096   -2.2953   -4.0704 C.3       3 UNK        -0.1990 
     29 N          23.9244   -1.3173   -2.8746 N.am      3 UNK        -0.4232 
     30 C          24.7705   -0.3525   -2.4805 C.2       2 UNK         0.4993 
     31 O          24.9415    0.6961   -3.1009 O.2       2 UNK        -0.5286 
     32 CA         25.6148   -0.6195   -1.2210 C.3       2 UNK         0.0209 
     33 CB         24.8639   -0.1620    0.0390 C.3       2 UNK        -0.1931 
     34 N          26.0157   -2.0221   -1.0730 N.am      2 UNK        -0.4546 
     35 C          26.7486   -2.6963   -1.9695 C.2       1 UNK         0.5154 
     36 O          27.1935   -2.1871   -2.9994 O.2       1 UNK        -0.5181 
     37 C          27.2905    2.0062   -5.6479 C.2       5 UNK         0.5014 
     38 O          27.8851    2.8703   -6.2925 O.2       5 UNK        -0.5248 
     39 N          25.9647    2.0171   -5.4439 N.am      6 UNK        -0.4434 
     40 CA         25.0388    2.9924   -6.0231 C.3       6 UNK         0.0363 
     41 CB         23.6486    2.8101   -5.3937 C.3       6 UNK        -0.1936 
     42 C          24.9455    2.9233   -7.5592 C.2       6 UNK         0.5081 
     43 O          24.6922    3.9530   -8.1855 O.2       6 UNK        -0.5248 
     44 N          25.1453    1.7320   -8.1412 N.am      7 UNK        -0.4718 
     45 CA         25.1892    1.5248   -9.5893 C.3       7 UNK         0.0273 
     46 CB         24.8281    0.0685   -9.9267 C.3       7 UNK        -0.1935 
     47 C          26.5581    1.9139  -10.1702 C.2       7 UNK         0.5018 
     48 O          26.6016    2.6392  -11.1652 O.2       7 UNK        -0.5186 
     49 N          27.6443    1.4525   -9.5367 N.am      8 UNK        -0.4240 
     50 CA         29.0214    1.7815   -9.8951 C.3       8 UNK         0.0235 
     51 CB         29.4894    0.9273  -11.0891 C.3       8 UNK        -0.2000 
     52 C          29.9230    1.5684   -8.6748 C.2       8 UNK         0.4941 
     53 O          30.0389    0.4396   -8.1955 O.2       8 UNK        -0.5273 
     54 N          30.5647    2.6477   -8.2056 N.am      9 UNK        -0.4262 
     55 CA         31.4940    2.6203   -7.0705 C.3       9 UNK         0.0264 
     56 CB         31.7623    4.0535   -6.5860 C.3       9 UNK        -0.1955 
     57 C          32.8113    1.8911   -7.3865 C.2       9 UNK         0.5031 
     58 O          33.4040    1.2969   -6.4857 O.2       9 UNK        -0.5390 
     59 N          33.2323    1.9296   -8.6583 N.am      10 UNK        -0.4204 
     60 CA         34.2923    1.0857   -9.2024 C.3       10 UNK         0.0237 
     61 CB         34.8837    1.7472  -10.4592 C.3       10 UNK        -0.1985 
     62 C          33.6847   -0.2868   -9.5211 C.2       10 UNK         0.4970 
     63 O          32.8210   -0.3724  -10.3963 O.2       10 UNK        -0.4914 
     64 N          34.1134   -1.3150   -8.7826 N.am      11 UNK        -0.4285 
     65 CA         33.5265   -2.6648   -8.8139 C.3       11 UNK         0.1007 
     66 C          33.7746   -3.4738  -10.1213 C.2       11 UNK         0.5703 
     67 N          34.6851   -3.0640  -10.9967 N.am      11 UNK        -0.7361 
     68 O          33.1254   -4.4930  -10.3441 O.2       11 UNK        -0.4986 
     69 C69        33.9259   -3.5034   -7.5691 C.3       12 UNK        -0.0947 
     70 S70        33.7735   -2.6238   -5.9774 S.3       12 UNK        -0.2240 
     71 C71        31.9703   -2.5629   -5.7597 C.3       12 UNK         0.0194 
     72 H72        25.0606   -6.4866   -4.4382 H         1 UNK         0.0906 
     73 H73        23.4948   -6.4430   -3.6280 H         1 UNK         0.0906 
     74 H74        23.9142   -5.1962   -4.8058 H         1 UNK         0.0906 
     75 H75        26.7691   -5.5728   -3.3137 H         1 UNK         0.3140 
     76 H76        26.5346   -4.4546   -0.7410 H         1 UNK         0.1085 
     77 H77        28.5411   -5.6907   -1.6889 H         1 UNK         0.0836 
     78 H78        28.9232   -4.2873   -2.6485 H         1 UNK         0.0836 
     79 H79        31.3534   -4.7922   -1.3146 H         1 UNK         0.0731 
     80 H80        31.7193   -3.5662   -0.1288 H         1 UNK         0.0731 
     81 H81        31.5798   -4.1669   -3.6017 H         1 UNK         0.1312 
     82 H82        31.6223   -0.0436   -4.7709 H         1 UNK         0.1406 
     83 H83        30.7930   -1.1188   -0.6961 H         1 UNK         0.1631 
     84 H84        32.0168    1.5003   -2.2512 H         1 UNK         0.0717 
     85 H85        30.5852    1.1453   -1.3158 H         1 UNK         0.0717 
     86 H86        28.5966    0.1350   -3.0491 H         1 UNK         0.0934 
     87 H87        27.6727    1.6007   -3.0349 H         1 UNK         0.0934 
     88 H88        28.9882    0.7072   -5.6448 H         1 UNK         0.0739 
     89 H89        27.2189   -1.0092   -4.3722 H         1 UNK         0.3093 
     90 H90        25.6126   -2.3893   -7.2752 H         1 UNK         0.0818 
     91 H91        27.5846   -3.4587   -5.1814 H         1 UNK         0.0819 
     92 H92        26.4062   -4.4234   -6.0697 H         1 UNK         0.0819 
     93 H93        27.7158   -3.6229   -6.9212 H         1 UNK         0.0819 
     94 H94        25.3484   -2.5503   -4.3626 H         1 UNK         0.3041 
     95 H95        22.6744   -0.2634   -4.1606 H         1 UNK         0.0784 
     96 H96        21.3762   -2.2150   -4.9549 H         1 UNK         0.0793 
     97 H97        22.3962   -3.3135   -4.0410 H         1 UNK         0.0793 
     98 H98        21.3687   -2.1548   -3.1999 H         1 UNK         0.0793 
     99 H99        23.8756   -2.1813   -2.3436 H         1 UNK         0.3024 
    100 H100       26.5264   -0.0248   -1.3110 H         1 UNK         0.1171 
    101 H101       24.5726    0.8865   -0.0404 H         1 UNK         0.0786 
    102 H102       25.4868   -0.2563    0.9287 H         1 UNK         0.0786 
    103 H103       23.9544   -0.7418    0.2013 H         1 UNK         0.0786 
    104 H104       25.6533   -2.5153   -0.2693 H         1 UNK         0.2977 
    105 H105       25.5645    1.3322   -4.8072 H         1 UNK         0.3127 
    106 H106       25.4036    3.9880   -5.7621 H         1 UNK         0.0770 
    107 H107       23.2370    1.8233   -5.6079 H         1 UNK         0.0814 
    108 H108       22.9449    3.5484   -5.7806 H         1 UNK         0.0814 
    109 H109       23.6830    2.9316   -4.3109 H         1 UNK         0.0814 
    110 H110       25.3823    0.9365   -7.5614 H         1 UNK         0.2983 
    111 H111       24.4368    2.1653  -10.0556 H         1 UNK         0.0947 
    112 H112       24.7904   -0.0804  -11.0065 H         1 UNK         0.0806 
    113 H113       23.8497   -0.1990   -9.5270 H         1 UNK         0.0806 
    114 H114       25.5544   -0.6396   -9.5284 H         1 UNK         0.0806 
    115 H115       27.5314    0.8381   -8.7285 H         1 UNK         0.3000 
    116 H116       29.0659    2.8342  -10.1831 H         1 UNK         0.0850 
    117 H117       30.5294    1.1417  -11.3385 H         1 UNK         0.0810 
    118 H118       28.8945    1.1238  -11.9809 H         1 UNK         0.0810 
    119 H119       29.4223   -0.1390  -10.8687 H         1 UNK         0.0810 
    120 H120       30.3937    3.5471   -8.6324 H         1 UNK         0.3040 
    121 H121       31.0099    2.0745   -6.2589 H         1 UNK         0.0766 
    122 H122       30.8389    4.5429   -6.2748 H         1 UNK         0.0812 
    123 H123       32.2269    4.6650   -7.3604 H         1 UNK         0.0812 
    124 H124       32.4310    4.0523   -5.7240 H         1 UNK         0.0812 
    125 H125       32.6553    2.4125   -9.3308 H         1 UNK         0.3205 
    126 H126       35.0902    0.9758   -8.4644 H         1 UNK         0.0754 
    127 H127       35.6780    1.1323  -10.8845 H         1 UNK         0.0769 
    128 H128       35.3169    2.7203  -10.2268 H         1 UNK         0.0769 
    129 H129       34.1325    1.8927  -11.2368 H         1 UNK         0.0769 
    130 H130       34.8076   -1.1559   -8.0673 H         1 UNK         0.2981 
    131 H131       32.4448   -2.5251   -8.7656 H         1 UNK         0.0541 
    132 H132       35.2178   -2.2270  -10.8245 H         1 UNK         0.3459 
    133 H133       34.8339   -3.5947  -11.8404 H         1 UNK         0.3459 
    134 H134       33.3301   -4.4164   -7.5155 H         1 UNK         0.0612 
    135 H135       34.9648   -3.8271   -7.6557 H         1 UNK         0.0612 
    136 H136       31.5377   -3.5394   -5.9826 H         1 UNK         0.0624 
    137 H137       31.5415   -1.8584   -6.4749 H         1 UNK         0.0624 
@<TRIPOS>BOND
     1    1    2 1    
     2    1   72 1    
     3    1   73 1    
     4    1   74 1    
     5    2    3 2    
     6    2    4 am   BACKBONE|DICT|INTERRES
     7    4    5 1    
     8    4   75 1    
     9    5    6 1    
    10    5   35 1    
    11    5   76 1    
    12    6    7 1    
    13    6   77 1    
    14    6   78 1    
    15    7    8 1    
    16    8    9 1    
    17    8   79 1    
    18    8   80 1    
    19    9   10 ar   
    20    9   14 ar   
    21   10   11 ar   
    22   10   81 1    
    23   11   12 ar   
    24   11   71 1    
    25   12   13 ar   
    26   12   82 1    
    27   13   14 ar   
    28   13   15 1    
    29   14   83 1    
    30   15   16 1    
    31   15   84 1    
    32   15   85 1    
    33   16   17 1    
    34   17   18 1    
    35   17   86 1    
    36   17   87 1    
    37   18   19 1    
    38   18   37 1    
    39   18   88 1    
    40   19   20 am   BACKBONE|DICT|INTERRES
    41   19   89 1    
    42   20   21 2    
    43   20   22 1    
    44   22   23 1    
    45   22   24 1    
    46   22   90 1    
    47   23   91 1    
    48   23   92 1    
    49   23   93 1    
    50   24   25 am   BACKBONE|DICT|INTERRES
    51   24   94 1    
    52   25   26 2    
    53   25   27 1    
    54   27   28 1    
    55   27   29 1    
    56   27   95 1    
    57   28   96 1    
    58   28   97 1    
    59   28   98 1    
    60   29   30 am   BACKBONE|DICT|INTERRES
    61   29   99 1    
    62   30   31 2    
    63   30   32 1    
    64   32   33 1    
    65   32   34 1    
    66   32  100 1    
    67   33  101 1    
    68   33  102 1    
    69   33  103 1    
    70   34   35 am   BACKBONE|DICT|INTERRES
    71   34  104 1    
    72   35   36 2    
    73   37   38 2    
    74   37   39 am   BACKBONE|DICT|INTERRES
    75   39   40 1    
    76   39  105 1    
    77   40   41 1    
    78   40   42 1    
    79   40  106 1    
    80   41  107 1    
    81   41  108 1    
    82   41  109 1    
    83   42   43 2    
    84   42   44 am   BACKBONE|DICT|INTERRES
    85   44   45 1    
    86   44  110 1    
    87   45   46 1    
    88   45   47 1    
    89   45  111 1    
    90   46  112 1    
    91   46  113 1    
    92   46  114 1    
    93   47   48 2    
    94   47   49 am   BACKBONE|DICT|INTERRES
    95   49   50 1    
    96   49  115 1    
    97   50   51 1    
    98   50   52 1    
    99   50  116 1    
   100   51  117 1    
   101   51  118 1    
   102   51  119 1    
   103   52   53 2    
   104   52   54 am   BACKBONE|DICT|INTERRES
   105   54   55 1    
   106   54  120 1    
   107   55   56 1    
   108   55   57 1    
   109   55  121 1    
   110   56  122 1    
   111   56  123 1    
   112   56  124 1    
   113   57   58 2    
   114   57   59 am   BACKBONE|DICT|INTERRES
   115   59   60 1    
   116   59  125 1    
   117   60   61 1    
   118   60   62 1    
   119   60  126 1    
   120   61  127 1    
   121   61  128 1    
   122   61  129 1    
   123   62   63 2    
   124   62   64 am   BACKBONE|DICT|INTERRES
   125   64   65 1    
   126   64  130 1    
   127   65   66 1    
   128   65   69 1    
   129   65  131 1    
   130   66   67 am   BACKBONE|DICT|INTERRES
   131   66   68 2    
   132   67  132 1    
   133   67  133 1    
   134   69   70 1    
   135   69  134 1    
   136   69  135 1    
   137   70   71 1    
   138   71  136 1    
   139   71  137 1    
@<TRIPOS>SUBSTRUCTURE
     1 UNK         1 GROUP             0       ****    0 ROOT    
