@<TRIPOS>MOLECULE
3R137
137   139    1
SMALL
USER_CHARGES


@<TRIPOS>ATOM
      1 CA         29.0628   -4.8849   -3.2119 C.3       0 UNK        -0.2020 
      2 C          28.0637   -4.0771   -2.4016 C.2       0 UNK         0.4855 
      3 O          26.9111   -4.4893   -2.2617 O.2       0 UNK        -0.5197 
      4 N          28.4991   -2.9373   -1.8507 N.am      1 UNK        -0.4892 
      5 CA         27.6927   -2.0500   -1.0077 C.3       1 UNK         0.0835 
      6 C6         28.5589   -0.9939   -0.2808 C.3       12 UNK        -0.0855 
      7 S7         29.7423   -1.8007    0.8557 S.3       12 UNK        -0.2931 
      8 C8         31.3193   -0.9752    0.4708 C.3       12 UNK         0.0378 
      9 C9         31.7833   -1.2063   -0.9617 C.ar      12 UNK        -0.0802 
     10 C10        32.2149   -2.4694   -1.3802 C.ar      12 UNK        -0.0944 
     11 C11        32.6881   -2.6721   -2.6822 C.ar      12 UNK        -0.0787 
     12 C12        32.7196   -1.5847   -3.5663 C.ar      12 UNK        -0.0862 
     13 C13        32.2773   -0.3212   -3.1672 C.ar      12 UNK        -0.0733 
     14 C14        31.8212   -0.1374   -1.8593 C.ar      12 UNK        -0.0832 
     15 C15        32.3140    0.8443   -4.1500 C.3       12 UNK         0.0240 
     16 S16        30.7446    1.7683   -4.2076 S.3       12 UNK        -0.2522 
     17 C17        29.5524    0.4727   -4.6916 C.3       12 UNK        -0.0967 
     18 CA         28.7550    0.8510   -5.9598 C.3       5 UNK         0.0660 
     19 N          28.1053   -0.3157   -6.5675 N.am      5 UNK        -0.4015 
     20 C          27.5123   -0.3185   -7.7667 C.2       4 UNK         0.4946 
     21 O          27.4336    0.6836   -8.4764 O.2       4 UNK        -0.5353 
     22 CA         26.8904   -1.6333   -8.2727 C.3       4 UNK         0.0277 
     23 CB         27.9697   -2.5786   -8.8277 C.3       4 UNK        -0.1981 
     24 N          26.0172   -2.3391   -7.3245 N.am      4 UNK        -0.4209 
     25 C          26.3336   -2.9006   -6.1505 C.2       3 UNK         0.4942 
     26 O          27.4433   -2.8224   -5.6177 O.2       3 UNK        -0.5208 
     27 CA         25.2207   -3.7041   -5.4657 C.3       3 UNK         0.0250 
     28 CB         25.5921   -5.1935   -5.3784 C.3       3 UNK        -0.1990 
     29 N          24.9819   -3.1737   -4.1268 N.am      3 UNK        -0.4232 
     30 C          24.2176   -2.1004   -3.8781 C.2       2 UNK         0.4993 
     31 O          23.5756   -1.5096   -4.7468 O.2       2 UNK        -0.5286 
     32 CA         24.1493   -1.5912   -2.4267 C.3       2 UNK         0.0209 
     33 CB         22.8958   -2.1368   -1.7239 C.3       2 UNK        -0.1931 
     34 N          25.3334   -1.9374   -1.6393 N.am      2 UNK        -0.4546 
     35 C          26.5522   -1.4133   -1.8270 C.2       1 UNK         0.5154 
     36 O          26.7925   -0.5086   -2.6294 O.2       1 UNK        -0.5181 
     37 C          27.7544    2.0000   -5.7120 C.2       5 UNK         0.5014 
     38 O          28.0158    3.1347   -6.1147 O.2       5 UNK        -0.5248 
     39 N          26.5865    1.6762   -5.1367 N.am      6 UNK        -0.4434 
     40 CA         25.4745    2.6155   -4.9422 C.3       6 UNK         0.0363 
     41 CB         24.4237    1.9784   -4.0226 C.3       6 UNK        -0.1936 
     42 C          24.8241    3.1048   -6.2535 C.2       6 UNK         0.5081 
     43 O          24.1519    4.1358   -6.2383 O.2       6 UNK        -0.5248 
     44 N          25.0513    2.3867   -7.3628 N.am      7 UNK        -0.4718 
     45 CA         24.6515    2.7743   -8.7191 C.3       7 UNK         0.0273 
     46 CB         24.2576    1.5113   -9.5064 C.3       7 UNK        -0.1935 
     47 C          25.7494    3.5761   -9.4512 C.2       7 UNK         0.5018 
     48 O          25.6025    3.8293  -10.6476 O.2       7 UNK        -0.5186 
     49 N          26.8162    3.9621   -8.7327 N.am      8 UNK        -0.4240 
     50 CA         27.9777    4.7376   -9.1816 C.3       8 UNK         0.0235 
     51 CB         27.5640    6.1191   -9.7356 C.3       8 UNK        -0.2000 
     52 C          28.9285    3.9667  -10.1179 C.2       8 UNK         0.4941 
     53 O          29.6701    4.5976  -10.8746 O.2       8 UNK        -0.5273 
     54 N          28.9291    2.6303  -10.0267 N.am      9 UNK        -0.4262 
     55 CA         29.9392    1.7515  -10.6150 C.3       9 UNK         0.0264 
     56 CB         29.2369    0.6191  -11.3922 C.3       9 UNK        -0.1955 
     57 C          30.8732    1.2695   -9.4871 C.2       9 UNK         0.5031 
     58 O          31.2438    2.0718   -8.6269 O.2       9 UNK        -0.5390 
     59 N          31.2471   -0.0137   -9.4929 N.am      10 UNK        -0.4204 
     60 CA         32.0563   -0.6615   -8.4639 C.3       10 UNK         0.0237 
     61 CB         33.5535   -0.4676   -8.7649 C.3       10 UNK        -0.1985 
     62 C          31.6849   -2.1460   -8.4184 C.2       10 UNK         0.4970 
     63 O          31.1656   -2.6713   -9.4065 O.2       10 UNK        -0.4914 
     64 N          31.9482   -2.7826   -7.2727 N.am      11 UNK        -0.4285 
     65 CA         31.6561   -4.1971   -7.0043 C.3       11 UNK         0.1007 
     66 C          32.4321   -5.1960   -7.9121 C.2       11 UNK         0.5703 
     67 N          31.9163   -6.4070   -8.0776 N.am      11 UNK        -0.7361 
     68 O          33.5022   -4.8987   -8.4412 O.2       11 UNK        -0.4986 
     69 C69        31.8063   -4.5201   -5.4932 C.3       12 UNK        -0.0947 
     70 S70        33.5055   -4.3529   -4.8442 S.3       12 UNK        -0.2240 
     71 C71        33.1966   -4.0657   -3.0648 C.3       12 UNK         0.0194 
     72 H72        28.9259   -5.9503   -3.0287 H         1 UNK         0.0906 
     73 H73        28.9195   -4.6996   -4.2759 H         1 UNK         0.0906 
     74 H74        30.0869   -4.6282   -2.9460 H         1 UNK         0.0906 
     75 H75        29.4531   -2.6394   -1.9986 H         1 UNK         0.3140 
     76 H76        27.2351   -2.6720   -0.2346 H         1 UNK         0.1085 
     77 H77        27.9317   -0.3239    0.3104 H         1 UNK         0.0836 
     78 H78        29.0834   -0.3633   -1.0004 H         1 UNK         0.0836 
     79 H79        32.0840   -1.3476    1.1539 H         1 UNK         0.0731 
     80 H80        31.2195    0.0907    0.6820 H         1 UNK         0.0731 
     81 H81        32.1979   -3.2939   -0.6799 H         1 UNK         0.1312 
     82 H82        33.1040   -1.7057   -4.5671 H         1 UNK         0.1406 
     83 H83        31.4960    0.8442   -1.5416 H         1 UNK         0.1631 
     84 H84        32.5525    0.5014   -5.1578 H         1 UNK         0.0717 
     85 H85        33.1135    1.5263   -3.8580 H         1 UNK         0.0717 
     86 H86        28.8921    0.2724   -3.8479 H         1 UNK         0.0934 
     87 H87        30.0937   -0.4578   -4.8683 H         1 UNK         0.0934 
     88 H88        29.4716    1.2130   -6.7000 H         1 UNK         0.0739 
     89 H89        28.0806   -1.1838   -6.0336 H         1 UNK         0.3093 
     90 H90        26.2453   -1.3607   -9.1096 H         1 UNK         0.0818 
     91 H91        28.5526   -2.0911   -9.6085 H         1 UNK         0.0819 
     92 H92        28.6663   -2.9016   -8.0540 H         1 UNK         0.0819 
     93 H93        27.5269   -3.4709   -9.2698 H         1 UNK         0.0819 
     94 H94        25.0582   -2.4316   -7.6314 H         1 UNK         0.3041 
     95 H95        24.3009   -3.6263   -6.0500 H         1 UNK         0.0784 
     96 H96        25.7321   -5.6181   -6.3733 H         1 UNK         0.0793 
     97 H97        26.5182   -5.3518   -4.8260 H         1 UNK         0.0793 
     98 H98        24.8080   -5.7694   -4.8866 H         1 UNK         0.0793 
     99 H99        25.5331   -3.5787   -3.3751 H         1 UNK         0.3024 
    100 H100       24.0722   -0.5035   -2.4647 H         1 UNK         0.1171 
    101 H101       22.7932   -1.7264   -0.7191 H         1 UNK         0.0786 
    102 H102       21.9927   -1.8694   -2.2748 H         1 UNK         0.0786 
    103 H103       22.9182   -3.2244   -1.6433 H         1 UNK         0.0786 
    104 H104       25.2343   -2.7081   -0.9932 H         1 UNK         0.2977 
    105 H105       26.4564    0.7334   -4.7934 H         1 UNK         0.3127 
    106 H106       25.8736    3.4972   -4.4360 H         1 UNK         0.0770 
    107 H107       23.9766    1.0952   -4.4780 H         1 UNK         0.0814 
    108 H108       23.6146    2.6786   -3.8102 H         1 UNK         0.0814 
    109 H109       24.8596    1.6895   -3.0662 H         1 UNK         0.0814 
    110 H110       25.6561    1.5791   -7.2980 H         1 UNK         0.2983 
    111 H111       23.7723    3.4202   -8.6661 H         1 UNK         0.0947 
    112 H112       25.1130    0.8616   -9.6882 H         1 UNK         0.0806 
    113 H113       23.8409    1.7735  -10.4798 H         1 UNK         0.0806 
    114 H114       23.4999    0.9324   -8.9782 H         1 UNK         0.0806 
    115 H115       26.8687    3.6565   -7.7665 H         1 UNK         0.3000 
    116 H116       28.5608    4.9208   -8.2777 H         1 UNK         0.0850 
    117 H117       28.4363    6.7559   -9.8874 H         1 UNK         0.0810 
    118 H118       26.9007    6.6416   -9.0464 H         1 UNK         0.0810 
    119 H119       27.0554    6.0365  -10.6963 H         1 UNK         0.0810 
    120 H120       28.2981    2.1800   -9.3680 H         1 UNK         0.3040 
    121 H121       30.5626    2.3023  -11.3219 H         1 UNK         0.0766 
    122 H122       28.5675    1.0280  -12.1494 H         1 UNK         0.0812 
    123 H123       28.6386   -0.0161  -10.7406 H         1 UNK         0.0812 
    124 H124       29.9542   -0.0135  -11.9163 H         1 UNK         0.0812 
    125 H125       30.8823   -0.6474  -10.1937 H         1 UNK         0.3205 
    126 H126       31.8177   -0.2228   -7.4923 H         1 UNK         0.0754 
    127 H127       34.1739   -0.9508   -8.0091 H         1 UNK         0.0769 
    128 H128       33.8220    0.5890   -8.7751 H         1 UNK         0.0769 
    129 H129       33.8264   -0.8914   -9.7323 H         1 UNK         0.0769 
    130 H130       32.4354   -2.2945   -6.5389 H         1 UNK         0.2981 
    131 H131       30.5999   -4.3285   -7.2486 H         1 UNK         0.0541 
    132 H132       32.4089   -7.0728   -8.6522 H         1 UNK         0.3459 
    133 H133       31.0462   -6.6698   -7.6421 H         1 UNK         0.3459 
    134 H134       31.1568   -3.8512   -4.9281 H         1 UNK         0.0612 
    135 H135       31.4542   -5.5307   -5.2800 H         1 UNK         0.0612 
    136 H136       34.1339   -4.2373   -2.5341 H         1 UNK         0.0624 
    137 H137       32.5001   -4.8248   -2.7066 H         1 UNK         0.0624 
@<TRIPOS>BOND
     1    1    2 1    
     2    1   72 1    
     3    1   73 1    
     4    1   74 1    
     5    2    3 2    
     6    2    4 am   BACKBONE|DICT|INTERRES
     7    4    5 1    
     8    4   75 1    
     9    5    6 1    
    10    5   35 1    
    11    5   76 1    
    12    6    7 1    
    13    6   77 1    
    14    6   78 1    
    15    7    8 1    
    16    8    9 1    
    17    8   79 1    
    18    8   80 1    
    19    9   10 ar   
    20    9   14 ar   
    21   10   11 ar   
    22   10   81 1    
    23   11   12 ar   
    24   11   71 1    
    25   12   13 ar   
    26   12   82 1    
    27   13   14 ar   
    28   13   15 1    
    29   14   83 1    
    30   15   16 1    
    31   15   84 1    
    32   15   85 1    
    33   16   17 1    
    34   17   18 1    
    35   17   86 1    
    36   17   87 1    
    37   18   19 1    
    38   18   37 1    
    39   18   88 1    
    40   19   20 am   BACKBONE|DICT|INTERRES
    41   19   89 1    
    42   20   21 2    
    43   20   22 1    
    44   22   23 1    
    45   22   24 1    
    46   22   90 1    
    47   23   91 1    
    48   23   92 1    
    49   23   93 1    
    50   24   25 am   BACKBONE|DICT|INTERRES
    51   24   94 1    
    52   25   26 2    
    53   25   27 1    
    54   27   28 1    
    55   27   29 1    
    56   27   95 1    
    57   28   96 1    
    58   28   97 1    
    59   28   98 1    
    60   29   30 am   BACKBONE|DICT|INTERRES
    61   29   99 1    
    62   30   31 2    
    63   30   32 1    
    64   32   33 1    
    65   32   34 1    
    66   32  100 1    
    67   33  101 1    
    68   33  102 1    
    69   33  103 1    
    70   34   35 am   BACKBONE|DICT|INTERRES
    71   34  104 1    
    72   35   36 2    
    73   37   38 2    
    74   37   39 am   BACKBONE|DICT|INTERRES
    75   39   40 1    
    76   39  105 1    
    77   40   41 1    
    78   40   42 1    
    79   40  106 1    
    80   41  107 1    
    81   41  108 1    
    82   41  109 1    
    83   42   43 2    
    84   42   44 am   BACKBONE|DICT|INTERRES
    85   44   45 1    
    86   44  110 1    
    87   45   46 1    
    88   45   47 1    
    89   45  111 1    
    90   46  112 1    
    91   46  113 1    
    92   46  114 1    
    93   47   48 2    
    94   47   49 am   BACKBONE|DICT|INTERRES
    95   49   50 1    
    96   49  115 1    
    97   50   51 1    
    98   50   52 1    
    99   50  116 1    
   100   51  117 1    
   101   51  118 1    
   102   51  119 1    
   103   52   53 2    
   104   52   54 am   BACKBONE|DICT|INTERRES
   105   54   55 1    
   106   54  120 1    
   107   55   56 1    
   108   55   57 1    
   109   55  121 1    
   110   56  122 1    
   111   56  123 1    
   112   56  124 1    
   113   57   58 2    
   114   57   59 am   BACKBONE|DICT|INTERRES
   115   59   60 1    
   116   59  125 1    
   117   60   61 1    
   118   60   62 1    
   119   60  126 1    
   120   61  127 1    
   121   61  128 1    
   122   61  129 1    
   123   62   63 2    
   124   62   64 am   BACKBONE|DICT|INTERRES
   125   64   65 1    
   126   64  130 1    
   127   65   66 1    
   128   65   69 1    
   129   65  131 1    
   130   66   67 am   BACKBONE|DICT|INTERRES
   131   66   68 2    
   132   67  132 1    
   133   67  133 1    
   134   69   70 1    
   135   69  134 1    
   136   69  135 1    
   137   70   71 1    
   138   71  136 1    
   139   71  137 1    
@<TRIPOS>SUBSTRUCTURE
     1 UNK         1 GROUP             0       ****    0 ROOT    
