@<TRIPOS>MOLECULE
3R137
137   139    1
SMALL
USER_CHARGES


@<TRIPOS>ATOM
      1 CA         26.0687   -5.5200   -2.8036 C.3       0 UNK        -0.2020 
      2 C          25.6464   -4.5147   -1.7424 C.2       0 UNK         0.4855 
      3 O          24.5101   -4.5632   -1.2712 O.2       0 UNK        -0.5197 
      4 N          26.5575   -3.6057   -1.3708 N.am      1 UNK        -0.4892 
      5 CA         26.4018   -2.5365   -0.3755 C.3       1 UNK         0.0835 
      6 C6         27.7037   -1.6990   -0.2123 C.3       12 UNK        -0.0855 
      7 S7         28.5572   -1.3005   -1.7845 S.3       12 UNK        -0.2931 
      8 C8         30.0392   -2.3561   -1.6653 C.3       12 UNK         0.0378 
      9 C9         30.5923   -2.6760   -3.0450 C.ar      12 UNK        -0.0802 
     10 C10        31.7450   -2.0483   -3.5242 C.ar      12 UNK        -0.0944 
     11 C11        32.2377   -2.3432   -4.8007 C.ar      12 UNK        -0.0787 
     12 C12        31.5540   -3.2627   -5.6075 C.ar      12 UNK        -0.0862 
     13 C13        30.4069   -3.9089   -5.1296 C.ar      12 UNK        -0.0733 
     14 C14        29.9473   -3.6219   -3.8425 C.ar      12 UNK        -0.0832 
     15 C15        29.6850   -4.9588   -5.9678 C.3       12 UNK         0.0240 
     16 S16        28.4801   -4.2566   -7.1446 S.3       12 UNK        -0.2522 
     17 C17        27.2415   -3.4310   -6.0728 C.3       12 UNK        -0.0967 
     18 CA         26.8535   -1.9996   -6.5308 C.3       5 UNK         0.0660 
     19 N          25.8623   -1.3884   -5.6372 N.am      5 UNK        -0.4015 
     20 C          25.2370   -0.2228   -5.8668 C.2       4 UNK         0.4946 
     21 O          25.4036    0.4518   -6.8851 O.2       4 UNK        -0.5353 
     22 CA         24.3136    0.2934   -4.7493 C.3       4 UNK         0.0277 
     23 CB         23.3287    1.3814   -5.2298 C.3       4 UNK        -0.1981 
     24 N          23.6223   -0.7791   -4.0243 N.am      4 UNK        -0.4209 
     25 C          22.6700   -1.6065   -4.4882 C.2       3 UNK         0.4942 
     26 O          22.2590   -1.5922   -5.6489 O.2       3 UNK        -0.5208 
     27 CA         22.0697   -2.6381   -3.5066 C.3       3 UNK         0.0250 
     28 CB         22.4308   -4.0683   -3.9403 C.3       3 UNK        -0.1990 
     29 N          22.4797   -2.4405   -2.1116 N.am      3 UNK        -0.4232 
     30 C          22.0755   -1.4226   -1.3353 C.2       2 UNK         0.4993 
     31 O          21.2035   -0.6198   -1.6689 O.2       2 UNK        -0.5286 
     32 CA         22.7838   -1.2292    0.0203 C.3       2 UNK         0.0209 
     33 CB         21.8827   -1.7103    1.1696 C.3       2 UNK        -0.1931 
     34 N          24.0927   -1.8856    0.1321 N.am      2 UNK        -0.4546 
     35 C          25.1610   -1.6575   -0.6474 C.2       1 UNK         0.5154 
     36 O          25.1666   -0.8469   -1.5761 O.2       1 UNK        -0.5181 
     37 C          28.0735   -1.0789   -6.7455 C.2       5 UNK         0.5014 
     38 O          28.5468   -0.9787   -7.8759 O.2       5 UNK        -0.5248 
     39 N          28.5195   -0.3756   -5.6929 N.am      6 UNK        -0.4434 
     40 CA         29.6542    0.5498   -5.7457 C.3       6 UNK         0.0363 
     41 CB         29.9229    1.1312   -4.3496 C.3       6 UNK        -0.1936 
     42 C          29.5058    1.6826   -6.7761 C.2       6 UNK         0.5081 
     43 O          30.4850    2.0345   -7.4359 O.2       6 UNK        -0.5248 
     44 N          28.2804    2.2060   -6.9208 N.am      7 UNK        -0.4718 
     45 CA         27.9369    3.2486   -7.8901 C.3       7 UNK         0.0273 
     46 CB         26.5578    3.8328   -7.5442 C.3       7 UNK        -0.1935 
     47 C          27.9651    2.7468   -9.3436 C.2       7 UNK         0.5018 
     48 O          28.3083    3.5197  -10.2386 O.2       7 UNK        -0.5186 
     49 N          27.6167    1.4696   -9.5511 N.am      8 UNK        -0.4240 
     50 CA         27.6918    0.7965  -10.8478 C.3       8 UNK         0.0235 
     51 CB         26.7380   -0.4099  -10.8589 C.3       8 UNK        -0.2000 
     52 C          29.1291    0.3640  -11.1791 C.2       8 UNK         0.4941 
     53 O          29.5628    0.5314  -12.3194 O.2       8 UNK        -0.5273 
     54 N          29.8348   -0.1856  -10.1809 N.am      9 UNK        -0.4262 
     55 CA         31.2085   -0.6757  -10.2856 C.3       9 UNK         0.0264 
     56 CB         31.5563   -1.4984   -9.0328 C.3       9 UNK        -0.1955 
     57 C          32.2436    0.4395  -10.4958 C.2       9 UNK         0.5031 
     58 O          33.1956    0.2217  -11.2468 O.2       9 UNK        -0.5390 
     59 N          32.0496    1.5896   -9.8268 N.am      10 UNK        -0.4204 
     60 CA         32.9591    2.7432   -9.7717 C.3       10 UNK         0.0237 
     61 CB         33.0514    3.4454  -11.1434 C.3       10 UNK        -0.1985 
     62 C          34.3285    2.3331   -9.1968 C.2       10 UNK         0.4970 
     63 O          35.3490    2.4346   -9.8808 O.2       10 UNK        -0.4914 
     64 N          34.2810    1.8076   -7.9661 N.am      11 UNK        -0.4285 
     65 CA         35.3633    1.1321   -7.2325 C.3       11 UNK         0.1007 
     66 C          36.7032    1.9186   -7.1897 C.2       11 UNK         0.5703 
     67 N          37.8293    1.2420   -7.3725 N.am      11 UNK        -0.7361 
     68 O          36.7296    3.1229   -6.9412 O.2       11 UNK        -0.4986 
     69 C69        34.9223    0.7623   -5.7888 C.3       12 UNK        -0.0947 
     70 S70        33.2373    0.0704   -5.6797 S.3       12 UNK        -0.2240 
     71 C71        33.5217   -1.6780   -5.2820 C.3       12 UNK         0.0194 
     72 H72        27.1524   -5.6123   -2.8660 H         1 UNK         0.0906 
     73 H73        25.6651   -6.5046   -2.5685 H         1 UNK         0.0906 
     74 H74        25.6919   -5.2241   -3.7814 H         1 UNK         0.0906 
     75 H75        27.4535   -3.5928   -1.8333 H         1 UNK         0.3140 
     76 H76        26.2320   -3.0360    0.5808 H         1 UNK         0.1085 
     77 H77        27.5045   -0.7654    0.3178 H         1 UNK         0.0836 
     78 H78        28.3957   -2.2409    0.4341 H         1 UNK         0.0836 
     79 H79        29.7969   -3.2907   -1.1569 H         1 UNK         0.0731 
     80 H80        30.7888   -1.8555   -1.0505 H         1 UNK         0.0731 
     81 H81        32.2615   -1.3264   -2.9062 H         1 UNK         0.1312 
     82 H82        31.9237   -3.4916   -6.5975 H         1 UNK         0.1406 
     83 H83        29.0776   -4.1336   -3.4581 H         1 UNK         0.1631 
     84 H84        29.1729   -5.6749   -5.3232 H         1 UNK         0.0717 
     85 H85        30.4195   -5.5369   -6.5303 H         1 UNK         0.0717 
     86 H86        26.3508   -4.0610   -6.0634 H         1 UNK         0.0934 
     87 H87        27.5908   -3.4063   -5.0436 H         1 UNK         0.0934 
     88 H88        26.3697   -2.0949   -7.5056 H         1 UNK         0.0739 
     89 H89        25.6679   -1.8675   -4.7710 H         1 UNK         0.3093 
     90 H90        24.9744    0.7609   -4.0175 H         1 UNK         0.0818 
     91 H91        22.6963    1.7322   -4.4143 H         1 UNK         0.0819 
     92 H92        23.8643    2.2480   -5.6194 H         1 UNK         0.0819 
     93 H93        22.6798    1.0187   -6.0273 H         1 UNK         0.0819 
     94 H94        23.9264   -0.8920   -3.0601 H         1 UNK         0.3041 
     95 H95        20.9838   -2.5336   -3.5556 H         1 UNK         0.0784 
     96 H96        22.0423   -4.2843   -4.9365 H         1 UNK         0.0793 
     97 H97        23.5093   -4.2170   -3.9746 H         1 UNK         0.0793 
     98 H98        22.0100   -4.8103   -3.2613 H         1 UNK         0.0793 
     99 H99        23.1788   -3.0807   -1.7457 H         1 UNK         0.3024 
    100 H100       22.9475   -0.1555    0.1373 H         1 UNK         0.1171 
    101 H101       22.3225   -1.4849    2.1414 H         1 UNK         0.0786 
    102 H102       20.9093   -1.2184    1.1363 H         1 UNK         0.0786 
    103 H103       21.7061   -2.7855    1.1201 H         1 UNK         0.0786 
    104 H104       24.1609   -2.6129    0.8300 H         1 UNK         0.2977 
    105 H105       28.0871   -0.5143   -4.7912 H         1 UNK         0.3127 
    106 H106       30.5128   -0.0476   -6.0465 H         1 UNK         0.0770 
    107 H107       29.0567    1.6649   -3.9572 H         1 UNK         0.0814 
    108 H108       30.7582    1.8325   -4.3740 H         1 UNK         0.0814 
    109 H109       30.1878    0.3493   -3.6401 H         1 UNK         0.0814 
    110 H110       27.5215    1.8213   -6.3756 H         1 UNK         0.2983 
    111 H111       28.6780    4.0468   -7.8048 H         1 UNK         0.0947 
    112 H112       26.2923    4.6369   -8.2319 H         1 UNK         0.0806 
    113 H113       26.5439    4.2510   -6.5376 H         1 UNK         0.0806 
    114 H114       25.7717    3.0792   -7.6062 H         1 UNK         0.0806 
    115 H115       27.3726    0.9004   -8.7507 H         1 UNK         0.3000 
    116 H116       27.3636    1.4921  -11.6236 H         1 UNK         0.0850 
    117 H117       26.7549   -0.9096  -11.8283 H         1 UNK         0.0810 
    118 H118       25.7092   -0.1026  -10.6700 H         1 UNK         0.0810 
    119 H119       27.0084   -1.1512  -10.1060 H         1 UNK         0.0810 
    120 H120       29.3647   -0.3522   -9.2900 H         1 UNK         0.3040 
    121 H121       31.2570   -1.3397  -11.1513 H         1 UNK         0.0766 
    122 H122       31.4942   -0.8962   -8.1259 H         1 UNK         0.0812 
    123 H123       32.5705   -1.8954   -9.0917 H         1 UNK         0.0812 
    124 H124       30.8806   -2.3459   -8.9138 H         1 UNK         0.0812 
    125 H125       31.2665    1.6361   -9.1786 H         1 UNK         0.3205 
    126 H126       32.5200    3.4522   -9.0678 H         1 UNK         0.0754 
    127 H127       33.6591    4.3486  -11.0767 H         1 UNK         0.0769 
    128 H128       32.0653    3.7421  -11.5011 H         1 UNK         0.0769 
    129 H129       33.5036    2.8059  -11.9020 H         1 UNK         0.0769 
    130 H130       33.3840    1.7739   -7.5027 H         1 UNK         0.2981 
    131 H131       35.5400    0.1999   -7.7721 H         1 UNK         0.0541 
    132 H132       38.7080    1.7343   -7.3300 H         1 UNK         0.3459 
    133 H133       37.8195    0.2517   -7.5614 H         1 UNK         0.3459 
    134 H134       34.9341    1.6486   -5.1512 H         1 UNK         0.0612 
    135 H135       35.6326    0.0632   -5.3441 H         1 UNK         0.0612 
    136 H136       33.9210   -2.1857   -6.1612 H         1 UNK         0.0624 
    137 H137       34.2791   -1.7573   -4.5009 H         1 UNK         0.0624 
@<TRIPOS>BOND
     1    1    2 1    
     2    1   72 1    
     3    1   73 1    
     4    1   74 1    
     5    2    3 2    
     6    2    4 am   BACKBONE|DICT|INTERRES
     7    4    5 1    
     8    4   75 1    
     9    5    6 1    
    10    5   35 1    
    11    5   76 1    
    12    6    7 1    
    13    6   77 1    
    14    6   78 1    
    15    7    8 1    
    16    8    9 1    
    17    8   79 1    
    18    8   80 1    
    19    9   10 ar   
    20    9   14 ar   
    21   10   11 ar   
    22   10   81 1    
    23   11   12 ar   
    24   11   71 1    
    25   12   13 ar   
    26   12   82 1    
    27   13   14 ar   
    28   13   15 1    
    29   14   83 1    
    30   15   16 1    
    31   15   84 1    
    32   15   85 1    
    33   16   17 1    
    34   17   18 1    
    35   17   86 1    
    36   17   87 1    
    37   18   19 1    
    38   18   37 1    
    39   18   88 1    
    40   19   20 am   BACKBONE|DICT|INTERRES
    41   19   89 1    
    42   20   21 2    
    43   20   22 1    
    44   22   23 1    
    45   22   24 1    
    46   22   90 1    
    47   23   91 1    
    48   23   92 1    
    49   23   93 1    
    50   24   25 am   BACKBONE|DICT|INTERRES
    51   24   94 1    
    52   25   26 2    
    53   25   27 1    
    54   27   28 1    
    55   27   29 1    
    56   27   95 1    
    57   28   96 1    
    58   28   97 1    
    59   28   98 1    
    60   29   30 am   BACKBONE|DICT|INTERRES
    61   29   99 1    
    62   30   31 2    
    63   30   32 1    
    64   32   33 1    
    65   32   34 1    
    66   32  100 1    
    67   33  101 1    
    68   33  102 1    
    69   33  103 1    
    70   34   35 am   BACKBONE|DICT|INTERRES
    71   34  104 1    
    72   35   36 2    
    73   37   38 2    
    74   37   39 am   BACKBONE|DICT|INTERRES
    75   39   40 1    
    76   39  105 1    
    77   40   41 1    
    78   40   42 1    
    79   40  106 1    
    80   41  107 1    
    81   41  108 1    
    82   41  109 1    
    83   42   43 2    
    84   42   44 am   BACKBONE|DICT|INTERRES
    85   44   45 1    
    86   44  110 1    
    87   45   46 1    
    88   45   47 1    
    89   45  111 1    
    90   46  112 1    
    91   46  113 1    
    92   46  114 1    
    93   47   48 2    
    94   47   49 am   BACKBONE|DICT|INTERRES
    95   49   50 1    
    96   49  115 1    
    97   50   51 1    
    98   50   52 1    
    99   50  116 1    
   100   51  117 1    
   101   51  118 1    
   102   51  119 1    
   103   52   53 2    
   104   52   54 am   BACKBONE|DICT|INTERRES
   105   54   55 1    
   106   54  120 1    
   107   55   56 1    
   108   55   57 1    
   109   55  121 1    
   110   56  122 1    
   111   56  123 1    
   112   56  124 1    
   113   57   58 2    
   114   57   59 am   BACKBONE|DICT|INTERRES
   115   59   60 1    
   116   59  125 1    
   117   60   61 1    
   118   60   62 1    
   119   60  126 1    
   120   61  127 1    
   121   61  128 1    
   122   61  129 1    
   123   62   63 2    
   124   62   64 am   BACKBONE|DICT|INTERRES
   125   64   65 1    
   126   64  130 1    
   127   65   66 1    
   128   65   69 1    
   129   65  131 1    
   130   66   67 am   BACKBONE|DICT|INTERRES
   131   66   68 2    
   132   67  132 1    
   133   67  133 1    
   134   69   70 1    
   135   69  134 1    
   136   69  135 1    
   137   70   71 1    
   138   71  136 1    
   139   71  137 1    
@<TRIPOS>SUBSTRUCTURE
     1 UNK         1 GROUP             0       ****    0 ROOT    
