@<TRIPOS>MOLECULE
3R137
137   139    1
SMALL
USER_CHARGES


@<TRIPOS>ATOM
      1 CA         29.7580   -6.2342   -4.0520 C.3       0 UNK        -0.2020 
      2 C          28.7616   -5.9675   -2.9335 C.2       0 UNK         0.4855 
      3 O          28.3143   -6.9041   -2.2710 O.2       0 UNK        -0.5197 
      4 N          28.4097   -4.6973   -2.7243 N.am      1 UNK        -0.4892 
      5 CA         27.4561   -4.2143   -1.7280 C.3       1 UNK         0.0835 
      6 C6         28.0244   -4.2608   -0.2732 C.3       12 UNK        -0.0855 
      7 S7         29.1176   -2.8953    0.2750 S.3       12 UNK        -0.2931 
      8 C8         30.7762   -3.3996   -0.3169 C.3       12 UNK         0.0378 
      9 C9         31.0675   -3.0601   -1.7802 C.ar      12 UNK        -0.0802 
     10 C10        32.0415   -3.7873   -2.4748 C.ar      12 UNK        -0.0944 
     11 C11        32.3048   -3.5217   -3.8235 C.ar      12 UNK        -0.0787 
     12 C12        31.5697   -2.5364   -4.4893 C.ar      12 UNK        -0.0862 
     13 C13        30.6113   -1.7913   -3.8030 C.ar      12 UNK        -0.0733 
     14 C14        30.3862   -2.0362   -2.4488 C.ar      12 UNK        -0.0832 
     15 C15        29.7432   -0.7851   -4.5301 C.3       12 UNK         0.0240 
     16 S16        30.2102    0.9392   -4.2127 S.3       12 UNK        -0.2522 
     17 C17        28.6199    1.8248   -4.4262 C.3       12 UNK        -0.0967 
     18 CA         27.9078    1.5832   -5.7855 C.3       5 UNK         0.0660 
     19 N          27.2544    0.2723   -5.8656 N.am      5 UNK        -0.4015 
     20 C          26.8440   -0.3132   -6.9974 C.2       4 UNK         0.4946 
     21 O          26.9261    0.2153   -8.1035 O.2       4 UNK        -0.5353 
     22 CA         26.1882   -1.6957   -6.8663 C.3       4 UNK         0.0277 
     23 CB         27.2507   -2.8045   -6.7888 C.3       4 UNK        -0.1981 
     24 N          25.3047   -1.7675   -5.7011 N.am      4 UNK        -0.4209 
     25 C          24.1093   -1.1604   -5.6387 C.2       3 UNK         0.4942 
     26 O          23.6112   -0.5419   -6.5791 O.2       3 UNK        -0.5208 
     27 CA         23.3481   -1.2190   -4.3010 C.3       3 UNK         0.0250 
     28 CB         22.3887   -2.4194   -4.2824 C.3       3 UNK        -0.1990 
     29 N          24.2152   -1.2723   -3.1204 N.am      3 UNK        -0.4232 
     30 C          25.1146   -0.3380   -2.7823 C.2       2 UNK         0.4993 
     31 O          25.3081    0.6934   -3.4284 O.2       2 UNK        -0.5286 
     32 CA         25.9892   -0.6282   -1.5495 C.3       2 UNK         0.0209 
     33 CB         25.3320   -0.0579   -0.2831 C.3       2 UNK        -0.1931 
     34 N          26.3339   -2.0422   -1.3252 N.am      2 UNK        -0.4546 
     35 C          26.9163   -2.8535   -2.2210 C.2       1 UNK         0.5154 
     36 O          27.0436   -2.5546   -3.4122 O.2       1 UNK        -0.5181 
     37 C          26.8953    2.7004   -6.1016 C.2       5 UNK         0.5014 
     38 O          27.2498    3.6516   -6.7979 O.2       5 UNK        -0.5248 
     39 N          25.6379    2.5329   -5.6624 N.am      6 UNK        -0.4434 
     40 CA         24.4987    3.3758   -6.0428 C.3       6 UNK         0.0363 
     41 CB         23.2628    2.9509   -5.2347 C.3       6 UNK        -0.1936 
     42 C          24.1913    3.3498   -7.5549 C.2       6 UNK         0.5081 
     43 O          23.7095    4.3487   -8.0887 O.2       6 UNK        -0.5248 
     44 N          24.5051    2.2302   -8.2214 N.am      7 UNK        -0.4718 
     45 CA         24.4204    2.0495   -9.6739 C.3       7 UNK         0.0273 
     46 CB         24.0146    0.5935   -9.9650 C.3       7 UNK        -0.1935 
     47 C          25.7299    2.4197  -10.4044 C.2       7 UNK         0.5018 
     48 O          25.8195    2.1939  -11.6119 O.2       7 UNK        -0.5186 
     49 N          26.7145    2.9705   -9.6761 N.am      8 UNK        -0.4240 
     50 CA         28.0469    3.3992  -10.1219 C.3       8 UNK         0.0235 
     51 CB         27.9545    4.4909  -11.2099 C.3       8 UNK        -0.2000 
     52 C          29.0012    2.2523  -10.5133 C.2       8 UNK         0.4941 
     53 O          30.0409    2.5190  -11.1193 O.2       8 UNK        -0.5273 
     54 N          28.6904    1.0094  -10.1228 N.am      9 UNK        -0.4262 
     55 CA         29.5561   -0.1603  -10.2747 C.3       9 UNK         0.0264 
     56 CB         28.6876   -1.3992  -10.5627 C.3       9 UNK        -0.1955 
     57 C          30.4165   -0.3096   -9.0088 C.2       9 UNK         0.5031 
     58 O          30.2233   -1.2432   -8.2277 O.2       9 UNK        -0.5390 
     59 N          31.3209    0.6572   -8.8087 N.am      10 UNK        -0.4204 
     60 CA         32.2242    0.7491   -7.6608 C.3       10 UNK         0.0237 
     61 CB         32.8887    2.1358   -7.6644 C.3       10 UNK        -0.1985 
     62 C          33.2852   -0.3657   -7.6373 C.2       10 UNK         0.4970 
     63 O          33.5951   -0.9521   -8.6771 O.2       10 UNK        -0.4914 
     64 N          33.8392   -0.6095   -6.4434 N.am      11 UNK        -0.4285 
     65 CA         34.8591   -1.6376   -6.1740 C.3       11 UNK         0.1007 
     66 C          36.2603   -1.3715   -6.8019 C.2       11 UNK         0.5703 
     67 N          36.5613   -0.1649   -7.2680 N.am      11 UNK        -0.7361 
     68 O          37.0861   -2.2782   -6.8736 O.2       11 UNK        -0.4986 
     69 C69        34.9546   -1.9297   -4.6475 C.3       12 UNK        -0.0947 
     70 S70        35.0601   -3.7070   -4.2418 S.3       12 UNK        -0.2240 
     71 C71        33.3690   -4.3084   -4.5746 C.3       12 UNK         0.0194 
     72 H72        29.9805   -5.3316   -4.6213 H         1 UNK         0.0906 
     73 H73        30.6924   -6.6126   -3.6385 H         1 UNK         0.0906 
     74 H74        29.3615   -6.9792   -4.7412 H         1 UNK         0.0906 
     75 H75        28.7619   -3.9625   -3.3258 H         1 UNK         0.3140 
     76 H76        26.5968   -4.8875   -1.7651 H         1 UNK         0.1085 
     77 H77        27.1853   -4.2786    0.4240 H         1 UNK         0.0836 
     78 H78        28.5386   -5.2070   -0.0991 H         1 UNK         0.0836 
     79 H79        30.9013   -4.4703   -0.1478 H         1 UNK         0.0731 
     80 H80        31.5246   -2.9004    0.2995 H         1 UNK         0.0731 
     81 H81        32.5958   -4.5654   -1.9676 H         1 UNK         0.1312 
     82 H82        31.7397   -2.3526   -5.5416 H         1 UNK         0.1406 
     83 H83        29.6427   -1.4447   -1.9340 H         1 UNK         0.1631 
     84 H84        28.7262   -0.9332   -4.1815 H         1 UNK         0.0717 
     85 H85        29.7458   -0.9727   -5.6043 H         1 UNK         0.0717 
     86 H86        27.9599    1.5764   -3.5931 H         1 UNK         0.0934 
     87 H87        28.8529    2.8852   -4.3065 H         1 UNK         0.0934 
     88 H88        28.6667    1.6199   -6.5711 H         1 UNK         0.0739 
     89 H89        27.0742   -0.1991   -4.9912 H         1 UNK         0.3093 
     90 H90        25.5906   -1.8651   -7.7648 H         1 UNK         0.0818 
     91 H91        27.8866   -2.7042   -5.9098 H         1 UNK         0.0819 
     92 H92        26.7907   -3.7920   -6.7561 H         1 UNK         0.0819 
     93 H93        27.9049   -2.7807   -7.6609 H         1 UNK         0.0819 
     94 H94        25.6756   -2.2223   -4.8722 H         1 UNK         0.3041 
     95 H95        22.7540   -0.3059   -4.2269 H         1 UNK         0.0784 
     96 H96        21.7132   -2.3919   -5.1389 H         1 UNK         0.0793 
     97 H97        22.9267   -3.3675   -4.3221 H         1 UNK         0.0793 
     98 H98        21.7698   -2.4201   -3.3849 H         1 UNK         0.0793 
     99 H99        24.1419   -2.0917   -2.5352 H         1 UNK         0.3024 
    100 H100       26.9307   -0.0976   -1.7075 H         1 UNK         0.1171 
    101 H101       25.0842    0.9970   -0.4116 H         1 UNK         0.0786 
    102 H102       25.9991   -0.1280    0.5764 H         1 UNK         0.0786 
    103 H103       24.4082   -0.5825   -0.0363 H         1 UNK         0.0786 
    104 H104       26.2738   -2.3640   -0.3697 H         1 UNK         0.2977 
    105 H105       25.4440    1.7624   -5.0264 H         1 UNK         0.3127 
    106 H106       24.7467    4.4052   -5.7757 H         1 UNK         0.0770 
    107 H107       22.9624    1.9290   -5.4674 H         1 UNK         0.0814 
    108 H108       22.4126    3.5983   -5.4534 H         1 UNK         0.0814 
    109 H109       23.4487    3.0095   -4.1620 H         1 UNK         0.0814 
    110 H110       24.8911    1.4514   -7.7032 H         1 UNK         0.2983 
    111 H111       23.6402    2.7012  -10.0729 H         1 UNK         0.0947 
    112 H112       23.8511    0.4364  -11.0319 H         1 UNK         0.0806 
    113 H113       23.0880    0.3304   -9.4542 H         1 UNK         0.0806 
    114 H114       24.7818   -0.1123   -9.6465 H         1 UNK         0.0806 
    115 H115       26.5466    3.0949   -8.6838 H         1 UNK         0.3000 
    116 H116       28.5046    3.8618   -9.2464 H         1 UNK         0.0850 
    117 H117       28.9325    4.9322  -11.4056 H         1 UNK         0.0810 
    118 H118       27.2920    5.3008  -10.9048 H         1 UNK         0.0810 
    119 H119       27.5867    4.0924  -12.1557 H         1 UNK         0.0810 
    120 H120       27.8714    0.8679   -9.5323 H         1 UNK         0.3040 
    121 H121       30.2302   -0.0264  -11.1234 H         1 UNK         0.0766 
    122 H122       28.1292   -1.2810  -11.4912 H         1 UNK         0.0812 
    123 H123       27.9691   -1.5880   -9.7658 H         1 UNK         0.0812 
    124 H124       29.3048   -2.2926  -10.6647 H         1 UNK         0.0812 
    125 H125       31.4058    1.3754   -9.5160 H         1 UNK         0.3205 
    126 H126       31.6167    0.6550   -6.7598 H         1 UNK         0.0754 
    127 H127       33.5314    2.2694   -6.7933 H         1 UNK         0.0769 
    128 H128       32.1438    2.9316   -7.6357 H         1 UNK         0.0769 
    129 H129       33.5054    2.2851   -8.5518 H         1 UNK         0.0769 
    130 H130       33.5519   -0.0563   -5.6496 H         1 UNK         0.2981 
    131 H131       34.4948   -2.5377   -6.6717 H         1 UNK         0.0541 
    132 H132       35.8917    0.5852   -7.2190 H         1 UNK         0.3459 
    133 H133       37.4691   -0.0066   -7.6761 H         1 UNK         0.3459 
    134 H134       35.8181   -1.4309   -4.2030 H         1 UNK         0.0612 
    135 H135       34.1027   -1.5158   -4.1080 H         1 UNK         0.0612 
    136 H136       33.3102   -5.3603   -4.2915 H         1 UNK         0.0624 
    137 H137       33.1809   -4.2759   -5.6486 H         1 UNK         0.0624 
@<TRIPOS>BOND
     1    1    2 1    
     2    1   72 1    
     3    1   73 1    
     4    1   74 1    
     5    2    3 2    
     6    2    4 am   BACKBONE|DICT|INTERRES
     7    4    5 1    
     8    4   75 1    
     9    5    6 1    
    10    5   35 1    
    11    5   76 1    
    12    6    7 1    
    13    6   77 1    
    14    6   78 1    
    15    7    8 1    
    16    8    9 1    
    17    8   79 1    
    18    8   80 1    
    19    9   10 ar   
    20    9   14 ar   
    21   10   11 ar   
    22   10   81 1    
    23   11   12 ar   
    24   11   71 1    
    25   12   13 ar   
    26   12   82 1    
    27   13   14 ar   
    28   13   15 1    
    29   14   83 1    
    30   15   16 1    
    31   15   84 1    
    32   15   85 1    
    33   16   17 1    
    34   17   18 1    
    35   17   86 1    
    36   17   87 1    
    37   18   19 1    
    38   18   37 1    
    39   18   88 1    
    40   19   20 am   BACKBONE|DICT|INTERRES
    41   19   89 1    
    42   20   21 2    
    43   20   22 1    
    44   22   23 1    
    45   22   24 1    
    46   22   90 1    
    47   23   91 1    
    48   23   92 1    
    49   23   93 1    
    50   24   25 am   BACKBONE|DICT|INTERRES
    51   24   94 1    
    52   25   26 2    
    53   25   27 1    
    54   27   28 1    
    55   27   29 1    
    56   27   95 1    
    57   28   96 1    
    58   28   97 1    
    59   28   98 1    
    60   29   30 am   BACKBONE|DICT|INTERRES
    61   29   99 1    
    62   30   31 2    
    63   30   32 1    
    64   32   33 1    
    65   32   34 1    
    66   32  100 1    
    67   33  101 1    
    68   33  102 1    
    69   33  103 1    
    70   34   35 am   BACKBONE|DICT|INTERRES
    71   34  104 1    
    72   35   36 2    
    73   37   38 2    
    74   37   39 am   BACKBONE|DICT|INTERRES
    75   39   40 1    
    76   39  105 1    
    77   40   41 1    
    78   40   42 1    
    79   40  106 1    
    80   41  107 1    
    81   41  108 1    
    82   41  109 1    
    83   42   43 2    
    84   42   44 am   BACKBONE|DICT|INTERRES
    85   44   45 1    
    86   44  110 1    
    87   45   46 1    
    88   45   47 1    
    89   45  111 1    
    90   46  112 1    
    91   46  113 1    
    92   46  114 1    
    93   47   48 2    
    94   47   49 am   BACKBONE|DICT|INTERRES
    95   49   50 1    
    96   49  115 1    
    97   50   51 1    
    98   50   52 1    
    99   50  116 1    
   100   51  117 1    
   101   51  118 1    
   102   51  119 1    
   103   52   53 2    
   104   52   54 am   BACKBONE|DICT|INTERRES
   105   54   55 1    
   106   54  120 1    
   107   55   56 1    
   108   55   57 1    
   109   55  121 1    
   110   56  122 1    
   111   56  123 1    
   112   56  124 1    
   113   57   58 2    
   114   57   59 am   BACKBONE|DICT|INTERRES
   115   59   60 1    
   116   59  125 1    
   117   60   61 1    
   118   60   62 1    
   119   60  126 1    
   120   61  127 1    
   121   61  128 1    
   122   61  129 1    
   123   62   63 2    
   124   62   64 am   BACKBONE|DICT|INTERRES
   125   64   65 1    
   126   64  130 1    
   127   65   66 1    
   128   65   69 1    
   129   65  131 1    
   130   66   67 am   BACKBONE|DICT|INTERRES
   131   66   68 2    
   132   67  132 1    
   133   67  133 1    
   134   69   70 1    
   135   69  134 1    
   136   69  135 1    
   137   70   71 1    
   138   71  136 1    
   139   71  137 1    
@<TRIPOS>SUBSTRUCTURE
     1 UNK         1 GROUP             0       ****    0 ROOT    
