@<TRIPOS>MOLECULE
3R137
137   139    1
SMALL
USER_CHARGES


@<TRIPOS>ATOM
      1 CA         28.0832    0.0745    2.5112 C.3       0 UNK        -0.2020 
      2 C          27.8695   -0.6033    1.1662 C.2       0 UNK         0.4855 
      3 O          27.4148    0.0418    0.2222 O.2       0 UNK        -0.5197 
      4 N          28.2024   -1.8966    1.0680 N.am      1 UNK        -0.4892 
      5 CA         28.0070   -2.7138   -0.1320 C.3       1 UNK         0.0835 
      6 C6         28.8676   -4.0011   -0.0778 C.3       12 UNK        -0.0855 
      7 S7         29.0964   -4.7915   -1.7107 S.3       12 UNK        -0.2931 
      8 C8         30.7991   -4.3100   -2.1513 C.3       12 UNK         0.0378 
      9 C9         30.8362   -2.9660   -2.8646 C.ar      12 UNK        -0.0802 
     10 C10        30.9364   -2.9117   -4.2580 C.ar      12 UNK        -0.0944 
     11 C11        30.9865   -1.6800   -4.9250 C.ar      12 UNK        -0.0787 
     12 C12        30.8984   -0.5020   -4.1774 C.ar      12 UNK        -0.0862 
     13 C13        30.7491   -0.5420   -2.7872 C.ar      12 UNK        -0.0733 
     14 C14        30.7627   -1.7774   -2.1356 C.ar      12 UNK        -0.0832 
     15 C15        30.5420    0.7326   -1.9732 C.3       12 UNK         0.0240 
     16 S16        29.3325    1.9032   -2.6919 S.3       12 UNK        -0.2522 
     17 C17        27.9185    0.8483   -3.1830 C.3       12 UNK        -0.0967 
     18 CA         27.6705    0.9309   -4.7144 C.3       5 UNK         0.0660 
     19 N          27.1417   -0.3144   -5.2762 N.am      5 UNK        -0.4015 
     20 C          27.2465   -0.6546   -6.5711 C.2       4 UNK         0.4946 
     21 O          27.8434    0.0233   -7.4087 O.2       4 UNK        -0.5353 
     22 CA         26.5544   -1.9539   -7.0256 C.3       4 UNK         0.0277 
     23 CB         27.5132   -3.1474   -6.8852 C.3       4 UNK        -0.1981 
     24 N          25.3132   -2.2418   -6.3020 N.am      4 UNK        -0.4209 
     25 C          24.2316   -1.4494   -6.2896 C.2       3 UNK         0.4942 
     26 O          24.1336   -0.4242   -6.9607 O.2       3 UNK        -0.5208 
     27 CA         23.0903   -1.8167   -5.3227 C.3       3 UNK         0.0250 
     28 CB         22.0000   -2.6077   -6.0622 C.3       3 UNK        -0.1990 
     29 N          23.5013   -2.5584   -4.1223 N.am      3 UNK        -0.4232 
     30 C          24.4532   -2.1894   -3.2525 C.2       2 UNK         0.4993 
     31 O          25.1506   -1.1793   -3.3945 O.2       2 UNK        -0.5286 
     32 CA         24.6990   -3.1157   -2.0513 C.3       2 UNK         0.0209 
     33 CB         24.4659   -4.6101   -2.3613 C.3       2 UNK        -0.1931 
     34 N          26.0722   -2.9177   -1.6022 N.am      2 UNK        -0.4546 
     35 C          26.5121   -3.0224   -0.3467 C.2       1 UNK         0.5154 
     36 O          25.8064   -3.3568    0.6091 O.2       1 UNK        -0.5181 
     37 C          26.7739    2.1267   -5.0881 C.2       5 UNK         0.5014 
     38 O          27.2961    3.1913   -5.4185 O.2       5 UNK        -0.5248 
     39 N          25.4467    1.9231   -5.0761 N.am      6 UNK        -0.4434 
     40 CA         24.4517    2.9160   -5.4968 C.3       6 UNK         0.0363 
     41 CB         23.0419    2.4343   -5.1186 C.3       6 UNK        -0.1936 
     42 C          24.5376    3.2376   -6.9998 C.2       6 UNK         0.5081 
     43 O          24.4334    4.4040   -7.3794 O.2       6 UNK        -0.5248 
     44 N          24.7640    2.2034   -7.8212 N.am      7 UNK        -0.4718 
     45 CA         25.0246    2.3092   -9.2597 C.3       7 UNK         0.0273 
     46 CB         24.8467    0.9215   -9.8976 C.3       7 UNK        -0.1935 
     47 C          26.4215    2.8675   -9.5930 C.2       7 UNK         0.5018 
     48 O          26.6334    3.2923  -10.7294 O.2       7 UNK        -0.5186 
     49 N          27.3371    2.8419   -8.6123 N.am      8 UNK        -0.4240 
     50 CA         28.7493    3.2296   -8.6829 C.3       8 UNK         0.0235 
     51 CB         28.8931    4.7495   -8.9105 C.3       8 UNK        -0.2000 
     52 C          29.5309    2.3808   -9.7026 C.2       8 UNK         0.4941 
     53 O          30.2095    2.9271  -10.5761 O.2       8 UNK        -0.5273 
     54 N          29.3981    1.0526   -9.5831 N.am      9 UNK        -0.4262 
     55 CA         30.0852    0.0676  -10.4203 C.3       9 UNK         0.0264 
     56 CB         29.4711   -1.3185  -10.1662 C.3       9 UNK        -0.1955 
     57 C          31.6038    0.0471  -10.1678 C.2       9 UNK         0.5031 
     58 O          32.0585    0.3809   -9.0700 O.2       9 UNK        -0.5390 
     59 N          32.3662   -0.3763  -11.1832 N.am      10 UNK        -0.4204 
     60 CA         33.8286   -0.4725  -11.1581 C.3       10 UNK         0.0237 
     61 CB         34.3556   -0.4129  -12.6048 C.3       10 UNK        -0.1985 
     62 C          34.3124   -1.7256  -10.4010 C.2       10 UNK         0.4970 
     63 O          34.9286   -2.6090  -11.0002 O.2       10 UNK        -0.4914 
     64 N          34.0092   -1.7863   -9.0995 N.am      11 UNK        -0.4285 
     65 CA         34.3851   -2.8881   -8.1963 C.3       11 UNK         0.1007 
     66 C          35.8946   -2.9336   -7.8169 C.2       11 UNK         0.5703 
     67 N          36.6816   -1.8967   -8.0805 N.am      11 UNK        -0.7361 
     68 O          36.3621   -3.9350   -7.2796 O.2       11 UNK        -0.4986 
     69 C69        33.4976   -2.9291   -6.9246 C.3       12 UNK        -0.0947 
     70 S70        31.7189   -3.0411   -7.3119 S.3       12 UNK        -0.2240 
     71 C71        31.0790   -1.5667   -6.4469 C.3       12 UNK         0.0194 
     72 H72        27.1347    0.4462    2.8980 H         1 UNK         0.0906 
     73 H73        28.5077   -0.6058    3.2492 H         1 UNK         0.0906 
     74 H74        28.7610    0.9206    2.4005 H         1 UNK         0.0906 
     75 H75        28.5293   -2.3883    1.8880 H         1 UNK         0.3140 
     76 H76        28.3396   -2.1124   -0.9792 H         1 UNK         0.1085 
     77 H77        28.4281   -4.7322    0.6040 H         1 UNK         0.0836 
     78 H78        29.8504   -3.7758    0.3385 H         1 UNK         0.0836 
     79 H79        31.2176   -5.0837   -2.7969 H         1 UNK         0.0731 
     80 H80        31.4353   -4.2881   -1.2655 H         1 UNK         0.0731 
     81 H81        30.9737   -3.8365   -4.8155 H         1 UNK         0.1312 
     82 H82        30.9100    0.4532   -4.6841 H         1 UNK         0.1406 
     83 H83        30.6836   -1.8168   -1.0580 H         1 UNK         0.1631 
     84 H84        31.5006    1.2408   -1.8629 H         1 UNK         0.0717 
     85 H85        30.2050    0.4879   -0.9645 H         1 UNK         0.0717 
     86 H86        28.1201   -0.1802   -2.8835 H         1 UNK         0.0934 
     87 H87        27.0354    1.1371   -2.6088 H         1 UNK         0.0934 
     88 H88        28.6327    1.0996   -5.2029 H         1 UNK         0.0739 
     89 H89        26.5626   -0.8743   -4.6574 H         1 UNK         0.3093 
     90 H90        26.3011   -1.8384   -8.0815 H         1 UNK         0.0818 
     91 H91        27.8276   -3.2976   -5.8512 H         1 UNK         0.0819 
     92 H92        27.0533   -4.0716   -7.2355 H         1 UNK         0.0819 
     93 H93        28.4147   -2.9964   -7.4792 H         1 UNK         0.0819 
     94 H94        25.3018   -3.0705   -5.7262 H         1 UNK         0.3041 
     95 H95        22.6530   -0.8776   -4.9788 H         1 UNK         0.0784 
     96 H96        21.6578   -2.0679   -6.9466 H         1 UNK         0.0793 
     97 H97        22.3623   -3.5813   -6.3948 H         1 UNK         0.0793 
     98 H98        21.1276   -2.7708   -5.4291 H         1 UNK         0.0793 
     99 H99        22.9925   -3.4099   -3.9322 H         1 UNK         0.3024 
    100 H100       24.0127   -2.7999   -1.2621 H         1 UNK         0.1171 
    101 H101       25.0680   -4.9461   -3.2067 H         1 UNK         0.0786 
    102 H102       24.7256   -5.2340   -1.5057 H         1 UNK         0.0786 
    103 H103       23.4202   -4.8166   -2.5907 H         1 UNK         0.0786 
    104 H104       26.7011   -2.5752   -2.3153 H         1 UNK         0.2977 
    105 H105       25.0994    1.0151   -4.7995 H         1 UNK         0.3127 
    106 H106       24.6527    3.8392   -4.9489 H         1 UNK         0.0770 
    107 H107       22.7653    1.5258   -5.6538 H         1 UNK         0.0814 
    108 H108       22.2962    3.1920   -5.3628 H         1 UNK         0.0814 
    109 H109       22.9617    2.2343   -4.0500 H         1 UNK         0.0814 
    110 H110       24.7353    1.2613   -7.4349 H         1 UNK         0.2983 
    111 H111       24.2875    2.9881   -9.6939 H         1 UNK         0.0947 
    112 H112       24.9910    0.9645  -10.9779 H         1 UNK         0.0806 
    113 H113       23.8460    0.5274   -9.7190 H         1 UNK         0.0806 
    114 H114       25.5649    0.2031   -9.4999 H         1 UNK         0.0806 
    115 H115       27.0451    2.4511   -7.7267 H         1 UNK         0.3000 
    116 H116       29.1765    3.0016   -7.7048 H         1 UNK         0.0850 
    117 H117       28.5151    5.0527   -9.8873 H         1 UNK         0.0810 
    118 H118       28.3531    5.3147   -8.1508 H         1 UNK         0.0810 
    119 H119       29.9393    5.0532   -8.8586 H         1 UNK         0.0810 
    120 H120       28.8361    0.6874   -8.8151 H         1 UNK         0.3040 
    121 H121       29.9119    0.3395  -11.4637 H         1 UNK         0.0766 
    122 H122       29.9274   -2.0769  -10.8034 H         1 UNK         0.0812 
    123 H123       28.4004   -1.3224  -10.3716 H         1 UNK         0.0812 
    124 H124       29.6122   -1.6347   -9.1337 H         1 UNK         0.0812 
    125 H125       31.9141   -0.6736  -12.0362 H         1 UNK         0.3205 
    126 H126       34.2270    0.3960  -10.6288 H         1 UNK         0.0754 
    127 H127       35.4457   -0.4516  -12.6256 H         1 UNK         0.0769 
    128 H128       34.0582    0.5132  -13.0973 H         1 UNK         0.0769 
    129 H129       33.9879   -1.2458  -13.2058 H         1 UNK         0.0769 
    130 H130       33.4492   -1.0378   -8.7045 H         1 UNK         0.2981 
    131 H131       34.1980   -3.8161   -8.7401 H         1 UNK         0.0541 
    132 H132       37.6576   -1.9424   -7.8337 H         1 UNK         0.3459 
    133 H133       36.3086   -1.0697   -8.5175 H         1 UNK         0.3459 
    134 H134       33.6864   -2.0523   -6.3026 H         1 UNK         0.0612 
    135 H135       33.7484   -3.7952   -6.3095 H         1 UNK         0.0612 
    136 H136       31.6996   -0.7106   -6.7127 H         1 UNK         0.0624 
    137 H137       30.0848   -1.3496   -6.8307 H         1 UNK         0.0624 
@<TRIPOS>BOND
     1    1    2 1    
     2    1   72 1    
     3    1   73 1    
     4    1   74 1    
     5    2    3 2    
     6    2    4 am   BACKBONE|DICT|INTERRES
     7    4    5 1    
     8    4   75 1    
     9    5    6 1    
    10    5   35 1    
    11    5   76 1    
    12    6    7 1    
    13    6   77 1    
    14    6   78 1    
    15    7    8 1    
    16    8    9 1    
    17    8   79 1    
    18    8   80 1    
    19    9   10 ar   
    20    9   14 ar   
    21   10   11 ar   
    22   10   81 1    
    23   11   12 ar   
    24   11   71 1    
    25   12   13 ar   
    26   12   82 1    
    27   13   14 ar   
    28   13   15 1    
    29   14   83 1    
    30   15   16 1    
    31   15   84 1    
    32   15   85 1    
    33   16   17 1    
    34   17   18 1    
    35   17   86 1    
    36   17   87 1    
    37   18   19 1    
    38   18   37 1    
    39   18   88 1    
    40   19   20 am   BACKBONE|DICT|INTERRES
    41   19   89 1    
    42   20   21 2    
    43   20   22 1    
    44   22   23 1    
    45   22   24 1    
    46   22   90 1    
    47   23   91 1    
    48   23   92 1    
    49   23   93 1    
    50   24   25 am   BACKBONE|DICT|INTERRES
    51   24   94 1    
    52   25   26 2    
    53   25   27 1    
    54   27   28 1    
    55   27   29 1    
    56   27   95 1    
    57   28   96 1    
    58   28   97 1    
    59   28   98 1    
    60   29   30 am   BACKBONE|DICT|INTERRES
    61   29   99 1    
    62   30   31 2    
    63   30   32 1    
    64   32   33 1    
    65   32   34 1    
    66   32  100 1    
    67   33  101 1    
    68   33  102 1    
    69   33  103 1    
    70   34   35 am   BACKBONE|DICT|INTERRES
    71   34  104 1    
    72   35   36 2    
    73   37   38 2    
    74   37   39 am   BACKBONE|DICT|INTERRES
    75   39   40 1    
    76   39  105 1    
    77   40   41 1    
    78   40   42 1    
    79   40  106 1    
    80   41  107 1    
    81   41  108 1    
    82   41  109 1    
    83   42   43 2    
    84   42   44 am   BACKBONE|DICT|INTERRES
    85   44   45 1    
    86   44  110 1    
    87   45   46 1    
    88   45   47 1    
    89   45  111 1    
    90   46  112 1    
    91   46  113 1    
    92   46  114 1    
    93   47   48 2    
    94   47   49 am   BACKBONE|DICT|INTERRES
    95   49   50 1    
    96   49  115 1    
    97   50   51 1    
    98   50   52 1    
    99   50  116 1    
   100   51  117 1    
   101   51  118 1    
   102   51  119 1    
   103   52   53 2    
   104   52   54 am   BACKBONE|DICT|INTERRES
   105   54   55 1    
   106   54  120 1    
   107   55   56 1    
   108   55   57 1    
   109   55  121 1    
   110   56  122 1    
   111   56  123 1    
   112   56  124 1    
   113   57   58 2    
   114   57   59 am   BACKBONE|DICT|INTERRES
   115   59   60 1    
   116   59  125 1    
   117   60   61 1    
   118   60   62 1    
   119   60  126 1    
   120   61  127 1    
   121   61  128 1    
   122   61  129 1    
   123   62   63 2    
   124   62   64 am   BACKBONE|DICT|INTERRES
   125   64   65 1    
   126   64  130 1    
   127   65   66 1    
   128   65   69 1    
   129   65  131 1    
   130   66   67 am   BACKBONE|DICT|INTERRES
   131   66   68 2    
   132   67  132 1    
   133   67  133 1    
   134   69   70 1    
   135   69  134 1    
   136   69  135 1    
   137   70   71 1    
   138   71  136 1    
   139   71  137 1    
@<TRIPOS>SUBSTRUCTURE
     1 UNK         1 GROUP             0       ****    0 ROOT    
