@<TRIPOS>MOLECULE
3R137
137   139    1
SMALL
USER_CHARGES


@<TRIPOS>ATOM
      1 CA         23.7514   -5.5565   -3.3691 C.3       0 UNK        -0.2020 
      2 C          24.5565   -4.6214   -2.4800 C.2       0 UNK         0.4855 
      3 O          23.9811   -3.7584   -1.8157 O.2       0 UNK        -0.5197 
      4 N          25.8848   -4.7888   -2.4704 N.am      1 UNK        -0.4892 
      5 CA         26.8712   -3.9956   -1.7270 C.3       1 UNK         0.0835 
      6 C6         28.3156   -4.5436   -1.9092 C.3       12 UNK        -0.0855 
      7 S7         28.7270   -5.0682   -3.6145 S.3       12 UNK        -0.2931 
      8 C8         30.5493   -5.1604   -3.5394 C.3       12 UNK         0.0378 
      9 C9         31.2995   -3.8274   -3.6068 C.ar      12 UNK        -0.0802 
     10 C10        32.6888   -3.8478   -3.4560 C.ar      12 UNK        -0.0944 
     11 C11        33.4419   -2.6727   -3.5390 C.ar      12 UNK        -0.0787 
     12 C12        32.7929   -1.4528   -3.7496 C.ar      12 UNK        -0.0862 
     13 C13        31.4041   -1.4136   -3.9075 C.ar      12 UNK        -0.0733 
     14 C14        30.6668   -2.6001   -3.8430 C.ar      12 UNK        -0.0832 
     15 C15        30.6950   -0.1054   -4.2173 C.3       12 UNK         0.0240 
     16 S16        29.4684    0.3334   -2.9475 S.3       12 UNK        -0.2522 
     17 C17        28.5479    1.7019   -3.7359 C.3       12 UNK        -0.0967 
     18 CA         28.0357    1.4204   -5.1739 C.3       5 UNK         0.0660 
     19 N          27.3487    0.1292   -5.3133 N.am      5 UNK        -0.4015 
     20 C          26.9670   -0.4023   -6.4854 C.2       4 UNK         0.4946 
     21 O          27.2074    0.1116   -7.5763 O.2       4 UNK        -0.5353 
     22 CA         26.1186   -1.6807   -6.4408 C.3       4 UNK         0.0277 
     23 CB         27.0042   -2.9332   -6.3466 C.3       4 UNK        -0.1981 
     24 N          25.1636   -1.6381   -5.3321 N.am      4 UNK        -0.4209 
     25 C          24.0496   -0.8886   -5.3403 C.2       3 UNK         0.4942 
     26 O          23.6686   -0.2496   -6.3205 O.2       3 UNK        -0.5208 
     27 CA         23.2430   -0.7934   -4.0323 C.3       3 UNK         0.0250 
     28 CB         22.1331   -1.8546   -3.9966 C.3       3 UNK        -0.1990 
     29 N          24.0814   -0.9027   -2.8352 N.am      3 UNK        -0.4232 
     30 C          24.9711    0.0317   -2.4649 C.2       2 UNK         0.4993 
     31 O          25.1197    1.0988   -3.0599 O.2       2 UNK        -0.5286 
     32 CA         25.8931   -0.2892   -1.2743 C.3       2 UNK         0.0209 
     33 CB         25.2918    0.2544    0.0309 C.3       2 UNK        -0.1931 
     34 N          26.1943   -1.7161   -1.1169 N.am      2 UNK        -0.4546 
     35 C          26.7554   -2.4923   -2.0556 C.2       1 UNK         0.5154 
     36 O          27.0975   -2.0735   -3.1623 O.2       1 UNK        -0.5181 
     37 C          27.1739    2.5884   -5.6931 C.2       5 UNK         0.5014 
     38 O          27.6846    3.4274   -6.4355 O.2       5 UNK        -0.5248 
     39 N          25.8759    2.5911   -5.3541 N.am      6 UNK        -0.4434 
     40 CA         24.8782    3.5393   -5.8629 C.3       6 UNK         0.0363 
     41 CB         23.5442    3.3170   -5.1334 C.3       6 UNK        -0.1936 
     42 C          24.6768    3.4629   -7.3891 C.2       6 UNK         0.5081 
     43 O          24.4176    4.4900   -8.0160 O.2       6 UNK        -0.5248 
     44 N          24.8301    2.2619   -7.9628 N.am      7 UNK        -0.4718 
     45 CA         24.8028    2.0060   -9.4063 C.3       7 UNK         0.0273 
     46 CB         24.3606    0.5511   -9.6405 C.3       7 UNK        -0.1935 
     47 C          26.1502    2.2840  -10.1056 C.2       7 UNK         0.5018 
     48 O          26.2246    2.1303  -11.3254 O.2       7 UNK        -0.5186 
     49 N          27.1834    2.6665   -9.3381 N.am      8 UNK        -0.4240 
     50 CA         28.5712    2.9145   -9.7483 C.3       8 UNK         0.0235 
     51 CB         28.6614    4.0870  -10.7486 C.3       8 UNK        -0.2000 
     52 C          29.3168    1.6537  -10.2325 C.2       8 UNK         0.4941 
     53 O          30.3035    1.7728  -10.9610 O.2       8 UNK        -0.5273 
     54 N          28.8809    0.4693   -9.7847 N.am      9 UNK        -0.4262 
     55 CA         29.5196   -0.8238  -10.0317 C.3       9 UNK         0.0264 
     56 CB         28.4237   -1.8827  -10.2552 C.3       9 UNK        -0.1955 
     57 C          30.4514   -1.1622   -8.8543 C.2       9 UNK         0.5031 
     58 O          30.2762   -2.1868   -8.1927 O.2       9 UNK        -0.5390 
     59 N          31.4006   -0.2578   -8.5911 N.am      10 UNK        -0.4204 
     60 CA         32.3479   -0.3190   -7.4804 C.3       10 UNK         0.0237 
     61 CB         32.5689    1.1167   -6.9677 C.3       10 UNK        -0.1985 
     62 C          33.6810   -0.9560   -7.8991 C.2       10 UNK         0.4970 
     63 O          33.9244   -1.1689   -9.0894 O.2       10 UNK        -0.4914 
     64 N          34.5363   -1.2050   -6.8991 N.am      11 UNK        -0.4285 
     65 CA         35.9210   -1.6799   -7.0564 C.3       11 UNK         0.1007 
     66 C          36.8688   -0.7038   -7.8171 C.2       11 UNK         0.5703 
     67 N          36.5574    0.5831   -7.9224 N.am      11 UNK        -0.7361 
     68 O          37.9065   -1.1269   -8.3212 O.2       11 UNK        -0.4986 
     69 C69        36.5459   -2.0636   -5.6883 C.3       12 UNK        -0.0947 
     70 S70        35.7210   -3.4785   -4.8840 S.3       12 UNK        -0.2240 
     71 C71        34.9554   -2.7406   -3.4015 C.3       12 UNK         0.0194 
     72 H72        24.3023   -6.4693   -3.5952 H         1 UNK         0.0906 
     73 H73        22.8216   -5.8394   -2.8763 H         1 UNK         0.0906 
     74 H74        23.5049   -5.0656   -4.3099 H         1 UNK         0.0906 
     75 H75        26.2977   -5.4848   -3.0767 H         1 UNK         0.3140 
     76 H76        26.6235   -4.1118   -0.6697 H         1 UNK         0.1085 
     77 H77        29.0546   -3.8185   -1.5614 H         1 UNK         0.0836 
     78 H78        28.4455   -5.4175   -1.2689 H         1 UNK         0.0836 
     79 H79        30.8842   -5.7781   -4.3739 H         1 UNK         0.0731 
     80 H80        30.8355   -5.6920   -2.6306 H         1 UNK         0.0731 
     81 H81        33.1946   -4.7898   -3.2908 H         1 UNK         0.1312 
     82 H82        33.3679   -0.5386   -3.8039 H         1 UNK         0.1406 
     83 H83        29.5964   -2.5491   -3.9830 H         1 UNK         0.1631 
     84 H84        30.2094   -0.2314   -5.1833 H         1 UNK         0.0717 
     85 H85        31.4045    0.7164   -4.3175 H         1 UNK         0.0717 
     86 H86        27.7144    1.9497   -3.0764 H         1 UNK         0.0934 
     87 H87        29.1942    2.5819   -3.7376 H         1 UNK         0.0934 
     88 H88        28.9004    1.3894   -5.8385 H         1 UNK         0.0739 
     89 H89        27.1663   -0.3880   -4.4602 H         1 UNK         0.3093 
     90 H90        25.5566   -1.7431   -7.3751 H         1 UNK         0.0818 
     91 H91        27.6711   -2.9021   -5.4867 H         1 UNK         0.0819 
     92 H92        26.4069   -3.8420   -6.2752 H         1 UNK         0.0819 
     93 H93        27.6368   -3.0280   -7.2296 H         1 UNK         0.0819 
     94 H94        25.4644   -2.0697   -4.4661 H         1 UNK         0.3041 
     95 H95        22.7656    0.1886   -4.0140 H         1 UNK         0.0784 
     96 H96        21.4562   -1.7365   -4.8438 H         1 UNK         0.0793 
     97 H97        22.5368   -2.8649   -4.0431 H         1 UNK         0.0793 
     98 H98        21.5344   -1.7738   -3.0892 H         1 UNK         0.0793 
     99 H99        24.0321   -1.7732   -2.3131 H         1 UNK         0.3024 
    100 H100       26.8392    0.2242   -1.4543 H         1 UNK         0.1171 
    101 H101       25.0789    1.3213   -0.0527 H         1 UNK         0.0786 
    102 H102       25.9789    0.1285    0.8679 H         1 UNK         0.0786 
    103 H103       24.3562   -0.2461    0.2839 H         1 UNK         0.0786 
    104 H104       25.8896   -2.1449   -0.2546 H         1 UNK         0.2977 
    105 H105       25.5506    1.9114   -4.6678 H         1 UNK         0.3127 
    106 H106       25.2325    4.5453   -5.6288 H         1 UNK         0.0770 
    107 H107       23.1403    2.3233   -5.3287 H         1 UNK         0.0814 
    108 H108       22.7967    4.0424   -5.4573 H         1 UNK         0.0814 
    109 H109       23.6574    3.4266   -4.0547 H         1 UNK         0.0814 
    110 H110       25.0134    1.4624   -7.3695 H         1 UNK         0.2983 
    111 H111       24.0615    2.6633   -9.8661 H         1 UNK         0.0947 
    112 H112       24.2429    0.3431  -10.7047 H         1 UNK         0.0806 
    113 H113       23.4025    0.3448   -9.1629 H         1 UNK         0.0806 
    114 H114       25.0890   -0.1594   -9.2498 H         1 UNK         0.0806 
    115 H115       27.0172    2.7492   -8.3414 H         1 UNK         0.3000 
    116 H116       29.0901    3.2257   -8.8406 H         1 UNK         0.0850 
    117 H117       29.6988    4.3786  -10.9168 H         1 UNK         0.0810 
    118 H118       28.1360    4.9667  -10.3770 H         1 UNK         0.0810 
    119 H119       28.2384    3.8267  -11.7192 H         1 UNK         0.0810 
    120 H120       28.1279    0.4572   -9.0961 H         1 UNK         0.3040 
    121 H121       30.1317   -0.7795  -10.9350 H         1 UNK         0.0766 
    122 H122       27.8088   -1.6360  -11.1207 H         1 UNK         0.0812 
    123 H123       27.7630   -1.9676   -9.3924 H         1 UNK         0.0812 
    124 H124       28.8591   -2.8665  -10.4349 H         1 UNK         0.0812 
    125 H125       31.5054    0.5165   -9.2332 H         1 UNK         0.3205 
    126 H126       31.9280   -0.9283   -6.6793 H         1 UNK         0.0754 
    127 H127       33.2069    1.1341   -6.0835 H         1 UNK         0.0769 
    128 H128       31.6253    1.5879   -6.6912 H         1 UNK         0.0769 
    129 H129       33.0419    1.7459   -7.7231 H         1 UNK         0.0769 
    130 H130       34.2455   -1.0267   -5.9510 H         1 UNK         0.2981 
    131 H131       35.8748   -2.5838   -7.6668 H         1 UNK         0.0541 
    132 H132       35.7133    0.9437   -7.5098 H         1 UNK         0.3459 
    133 H133       37.1798    1.2002   -8.4199 H         1 UNK         0.3459 
    134 H134       37.5901   -2.3555   -5.8169 H         1 UNK         0.0612 
    135 H135       36.5611   -1.2007   -5.0212 H         1 UNK         0.0612 
    136 H136       35.3740   -1.7558   -3.1916 H         1 UNK         0.0624 
    137 H137       35.2056   -3.3608   -2.5396 H         1 UNK         0.0624 
@<TRIPOS>BOND
     1    1    2 1    
     2    1   72 1    
     3    1   73 1    
     4    1   74 1    
     5    2    3 2    
     6    2    4 am   BACKBONE|DICT|INTERRES
     7    4    5 1    
     8    4   75 1    
     9    5    6 1    
    10    5   35 1    
    11    5   76 1    
    12    6    7 1    
    13    6   77 1    
    14    6   78 1    
    15    7    8 1    
    16    8    9 1    
    17    8   79 1    
    18    8   80 1    
    19    9   10 ar   
    20    9   14 ar   
    21   10   11 ar   
    22   10   81 1    
    23   11   12 ar   
    24   11   71 1    
    25   12   13 ar   
    26   12   82 1    
    27   13   14 ar   
    28   13   15 1    
    29   14   83 1    
    30   15   16 1    
    31   15   84 1    
    32   15   85 1    
    33   16   17 1    
    34   17   18 1    
    35   17   86 1    
    36   17   87 1    
    37   18   19 1    
    38   18   37 1    
    39   18   88 1    
    40   19   20 am   BACKBONE|DICT|INTERRES
    41   19   89 1    
    42   20   21 2    
    43   20   22 1    
    44   22   23 1    
    45   22   24 1    
    46   22   90 1    
    47   23   91 1    
    48   23   92 1    
    49   23   93 1    
    50   24   25 am   BACKBONE|DICT|INTERRES
    51   24   94 1    
    52   25   26 2    
    53   25   27 1    
    54   27   28 1    
    55   27   29 1    
    56   27   95 1    
    57   28   96 1    
    58   28   97 1    
    59   28   98 1    
    60   29   30 am   BACKBONE|DICT|INTERRES
    61   29   99 1    
    62   30   31 2    
    63   30   32 1    
    64   32   33 1    
    65   32   34 1    
    66   32  100 1    
    67   33  101 1    
    68   33  102 1    
    69   33  103 1    
    70   34   35 am   BACKBONE|DICT|INTERRES
    71   34  104 1    
    72   35   36 2    
    73   37   38 2    
    74   37   39 am   BACKBONE|DICT|INTERRES
    75   39   40 1    
    76   39  105 1    
    77   40   41 1    
    78   40   42 1    
    79   40  106 1    
    80   41  107 1    
    81   41  108 1    
    82   41  109 1    
    83   42   43 2    
    84   42   44 am   BACKBONE|DICT|INTERRES
    85   44   45 1    
    86   44  110 1    
    87   45   46 1    
    88   45   47 1    
    89   45  111 1    
    90   46  112 1    
    91   46  113 1    
    92   46  114 1    
    93   47   48 2    
    94   47   49 am   BACKBONE|DICT|INTERRES
    95   49   50 1    
    96   49  115 1    
    97   50   51 1    
    98   50   52 1    
    99   50  116 1    
   100   51  117 1    
   101   51  118 1    
   102   51  119 1    
   103   52   53 2    
   104   52   54 am   BACKBONE|DICT|INTERRES
   105   54   55 1    
   106   54  120 1    
   107   55   56 1    
   108   55   57 1    
   109   55  121 1    
   110   56  122 1    
   111   56  123 1    
   112   56  124 1    
   113   57   58 2    
   114   57   59 am   BACKBONE|DICT|INTERRES
   115   59   60 1    
   116   59  125 1    
   117   60   61 1    
   118   60   62 1    
   119   60  126 1    
   120   61  127 1    
   121   61  128 1    
   122   61  129 1    
   123   62   63 2    
   124   62   64 am   BACKBONE|DICT|INTERRES
   125   64   65 1    
   126   64  130 1    
   127   65   66 1    
   128   65   69 1    
   129   65  131 1    
   130   66   67 am   BACKBONE|DICT|INTERRES
   131   66   68 2    
   132   67  132 1    
   133   67  133 1    
   134   69   70 1    
   135   69  134 1    
   136   69  135 1    
   137   70   71 1    
   138   71  136 1    
   139   71  137 1    
@<TRIPOS>SUBSTRUCTURE
     1 UNK         1 GROUP             0       ****    0 ROOT    
