@<TRIPOS>MOLECULE
3R137
137   139    1
SMALL
USER_CHARGES


@<TRIPOS>ATOM
      1 CA         28.0683   -5.7631    0.6585 C.3       0 UNK        -0.2020 
      2 C          28.0446   -4.5456   -0.2524 C.2       0 UNK         0.4855 
      3 O          27.7330   -4.6789   -1.4356 O.2       0 UNK        -0.5197 
      4 N          28.3696   -3.3647    0.2930 N.am      1 UNK        -0.4892 
      5 CA         28.4373   -2.0434   -0.3575 C.3       1 UNK         0.0835 
      6 C6         29.4301   -1.9640   -1.5472 C.3       12 UNK        -0.0855 
      7 S7         31.1522   -2.3235   -1.0464 S.3       12 UNK        -0.2931 
      8 C8         31.4586   -3.9709   -1.7700 C.3       12 UNK         0.0378 
      9 C9         31.3938   -3.9459   -3.2899 C.ar      12 UNK        -0.0802 
     10 C10        32.4096   -3.3315   -4.0273 C.ar      12 UNK        -0.0944 
     11 C11        32.3291   -3.2417   -5.4248 C.ar      12 UNK        -0.0787 
     12 C12        31.2178   -3.7922   -6.0717 C.ar      12 UNK        -0.0862 
     13 C13        30.1955   -4.4110   -5.3449 C.ar      12 UNK        -0.0733 
     14 C14        30.3011   -4.5049   -3.9556 C.ar      12 UNK        -0.0832 
     15 C15        28.9421   -4.9089   -6.0549 C.3       12 UNK         0.0240 
     16 S16        27.4215   -4.1067   -5.4337 S.3       12 UNK        -0.2522 
     17 C17        27.8402   -2.3321   -5.5347 C.3       12 UNK        -0.0967 
     18 CA         27.0644   -1.5984   -6.6498 C.3       5 UNK         0.0660 
     19 N          25.6180   -1.5861   -6.4244 N.am      5 UNK        -0.4015 
     20 C          24.7041   -1.3633   -7.3798 C.2       4 UNK         0.4946 
     21 O          24.9797   -1.2156   -8.5692 O.2       4 UNK        -0.5353 
     22 CA         23.2323   -1.2655   -6.9390 C.3       4 UNK         0.0277 
     23 CB         22.5696   -2.6520   -6.9708 C.3       4 UNK        -0.1981 
     24 N          23.0635   -0.6754   -5.6091 N.am      4 UNK        -0.4209 
     25 C          23.3845    0.5865   -5.2876 C.2       3 UNK         0.4942 
     26 O          23.7990    1.4139   -6.0969 O.2       3 UNK        -0.5208 
     27 CA         23.2876    0.9704   -3.8003 C.3       3 UNK         0.0250 
     28 CB         21.8840    1.5024   -3.4710 C.3       3 UNK        -0.1990 
     29 N          23.6248   -0.1313   -2.8906 N.am      3 UNK        -0.4232 
     30 C          24.8039   -0.7692   -2.8681 C.2       2 UNK         0.4993 
     31 O          25.7439   -0.4936   -3.6189 O.2       2 UNK        -0.5286 
     32 CA         24.8999   -1.9730   -1.9169 C.3       2 UNK         0.0209 
     33 CB         24.3215   -3.2258   -2.5968 C.3       2 UNK        -0.1931 
     34 N          26.2687   -2.2699   -1.4947 N.am      2 UNK        -0.4546 
     35 C          27.0470   -1.4886   -0.7374 C.2       1 UNK         0.5154 
     36 O          26.6933   -0.3920   -0.3004 O.2       1 UNK        -0.5181 
     37 C          27.5988   -0.1660   -6.8105 C.2       5 UNK         0.5014 
     38 O          28.4102    0.0733   -7.7062 O.2       5 UNK        -0.5248 
     39 N          27.1256    0.7576   -5.9591 N.am      6 UNK        -0.4434 
     40 CA         27.4645    2.1844   -5.9949 C.3       6 UNK         0.0363 
     41 CB         26.8621    2.8876   -4.7692 C.3       6 UNK        -0.1936 
     42 C          27.0225    2.8806   -7.2947 C.2       6 UNK         0.5081 
     43 O          27.7471    3.7355   -7.8019 O.2       6 UNK        -0.5248 
     44 N          25.8583    2.4847   -7.8248 N.am      7 UNK        -0.4718 
     45 CA         25.3327    2.9304   -9.1177 C.3       7 UNK         0.0273 
     46 CB         23.8301    2.6092   -9.1768 C.3       7 UNK        -0.1935 
     47 C          26.0578    2.3111  -10.3289 C.2       7 UNK         0.5018 
     48 O          25.8974    2.8216  -11.4389 O.2       7 UNK        -0.5186 
     49 N          26.8106    1.2256  -10.1094 N.am      8 UNK        -0.4240 
     50 CA         27.5630    0.4933  -11.1227 C.3       8 UNK         0.0235 
     51 CB         27.2344   -1.0098  -11.0020 C.3       8 UNK        -0.2000 
     52 C          29.0575    0.8250  -10.9802 C.2       8 UNK         0.4941 
     53 O          29.4484    1.9606  -11.2541 O.2       8 UNK        -0.5273 
     54 N          29.8707   -0.1683  -10.5953 N.am      9 UNK        -0.4262 
     55 CA         31.3292   -0.0793  -10.5080 C.3       9 UNK         0.0264 
     56 CB         31.9131   -1.4902  -10.3232 C.3       9 UNK        -0.1955 
     57 C          31.8422    0.8506   -9.3977 C.2       9 UNK         0.5031 
     58 O          32.8795    1.4866   -9.5940 O.2       9 UNK        -0.5390 
     59 N          31.1413    0.8869   -8.2537 N.am      10 UNK        -0.4204 
     60 CA         31.4422    1.6103   -7.0076 C.3       10 UNK         0.0237 
     61 CB         31.3813    3.1350   -7.2191 C.3       10 UNK        -0.1985 
     62 C          32.7504    1.2037   -6.2986 C.2       10 UNK         0.4970 
     63 O          32.7154    0.9592   -5.0938 O.2       10 UNK        -0.4914 
     64 N          33.8583    1.1616   -7.0500 N.am      11 UNK        -0.4285 
     65 CA         35.2385    0.8009   -6.6756 C.3       11 UNK         0.1007 
     66 C          35.8727    1.5515   -5.4627 C.2       11 UNK         0.5703 
     67 N          35.3288    2.6807   -5.0256 N.am      11 UNK        -0.7361 
     68 O          36.9056    1.1375   -4.9406 O.2       11 UNK        -0.4986 
     69 C69        35.5029   -0.7338   -6.7072 C.3       12 UNK        -0.0947 
     70 S70        34.7188   -1.6921   -5.3689 S.3       12 UNK        -0.2240 
     71 C71        33.3834   -2.5378   -6.2833 C.3       12 UNK         0.0194 
     72 H72        28.7703   -6.5029    0.2747 H         1 UNK         0.0906 
     73 H73        28.3664   -5.5085    1.6754 H         1 UNK         0.0906 
     74 H74        27.0799   -6.2201    0.6983 H         1 UNK         0.0906 
     75 H75        28.5926   -3.3449    1.2789 H         1 UNK         0.3140 
     76 H76        28.8166   -1.3690    0.4127 H         1 UNK         0.1085 
     77 H77        29.1193   -2.6232   -2.3570 H         1 UNK         0.0836 
     78 H78        29.4261   -0.9587   -1.9732 H         1 UNK         0.0836 
     79 H79        32.4462   -4.3139   -1.4588 H         1 UNK         0.0731 
     80 H80        30.7462   -4.6878   -1.3611 H         1 UNK         0.0731 
     81 H81        33.2424   -2.9014   -3.4904 H         1 UNK         0.1312 
     82 H82        31.1345   -3.7100   -7.1471 H         1 UNK         0.1406 
     83 H83        29.5013   -4.9651   -3.3903 H         1 UNK         0.1631 
     84 H84        29.0103   -4.7378   -7.1303 H         1 UNK         0.0717 
     85 H85        28.8564   -5.9875   -5.9175 H         1 UNK         0.0717 
     86 H86        27.6449   -1.8884   -4.5581 H         1 UNK         0.0934 
     87 H87        28.9113   -2.2083   -5.6926 H         1 UNK         0.0934 
     88 H88        27.2579   -2.1220   -7.5887 H         1 UNK         0.0739 
     89 H89        25.3216   -1.6460   -5.4600 H         1 UNK         0.3093 
     90 H90        22.7179   -0.6222   -7.6564 H         1 UNK         0.0818 
     91 H91        21.5053   -2.5894   -6.7435 H         1 UNK         0.0819 
     92 H92        22.6613   -3.1041   -7.9595 H         1 UNK         0.0819 
     93 H93        23.0276   -3.3373   -6.2561 H         1 UNK         0.0819 
     94 H94        22.7156   -1.2807   -4.8804 H         1 UNK         0.3041 
     95 H95        24.0059    1.7723   -3.6211 H         1 UNK         0.0784 
     96 H96        21.6214    2.3369   -4.1230 H         1 UNK         0.0793 
     97 H97        21.1186    0.7358   -3.5989 H         1 UNK         0.0793 
     98 H98        21.8278    1.8666   -2.4449 H         1 UNK         0.0793 
     99 H99        22.8985   -0.4253   -2.2528 H         1 UNK         0.3024 
    100 H100       24.3182   -1.7517   -1.0193 H         1 UNK         0.1171 
    101 H101       24.3413   -4.0846   -1.9253 H         1 UNK         0.0786 
    102 H102       23.2828   -3.0750   -2.8935 H         1 UNK         0.0786 
    103 H103       24.8838   -3.4928   -3.4929 H         1 UNK         0.0786 
    104 H104       26.6563   -3.1693   -1.7699 H         1 UNK         0.2977 
    105 H105       26.5005    0.4534   -5.2177 H         1 UNK         0.3127 
    106 H106       28.5499    2.2676   -5.9305 H         1 UNK         0.0770 
    107 H107       25.7727    2.8815   -4.7970 H         1 UNK         0.0814 
    108 H108       27.1791    3.9304   -4.7261 H         1 UNK         0.0814 
    109 H109       27.1783    2.4124   -3.8402 H         1 UNK         0.0814 
    110 H110       25.2700    1.8518   -7.2885 H         1 UNK         0.2983 
    111 H111       25.4558    4.0136   -9.1846 H         1 UNK         0.0947 
    112 H112       23.3908    2.9520  -10.1146 H         1 UNK         0.0806 
    113 H113       23.2878    3.0983   -8.3673 H         1 UNK         0.0806 
    114 H114       23.6469    1.5363   -9.1015 H         1 UNK         0.0806 
    115 H115       26.9333    0.9122   -9.1550 H         1 UNK         0.3000 
    116 H116       27.2654    0.8148  -12.1229 H         1 UNK         0.0850 
    117 H117       27.7755   -1.5980  -11.7445 H         1 UNK         0.0810 
    118 H118       26.1721   -1.1863  -11.1727 H         1 UNK         0.0810 
    119 H119       27.4704   -1.4069  -10.0142 H         1 UNK         0.0810 
    120 H120       29.4555   -1.0618  -10.3755 H         1 UNK         0.3040 
    121 H121       31.6935    0.3173  -11.4582 H         1 UNK         0.0766 
    122 H122       31.6489   -2.1421  -11.1561 H         1 UNK         0.0812 
    123 H123       31.5595   -1.9584   -9.4037 H         1 UNK         0.0812 
    124 H124       33.0026   -1.4584  -10.2733 H         1 UNK         0.0812 
    125 H125       30.2683    0.3643   -8.2253 H         1 UNK         0.3205 
    126 H126       30.6352    1.3418   -6.3254 H         1 UNK         0.0754 
    127 H127       31.4900    3.6653   -6.2723 H         1 UNK         0.0769 
    128 H128       30.4266    3.4346   -7.6507 H         1 UNK         0.0769 
    129 H129       32.1703    3.4882   -7.8835 H         1 UNK         0.0769 
    130 H130       33.7264    1.3911   -8.0340 H         1 UNK         0.2981 
    131 H131       35.8178    1.1962   -7.5106 H         1 UNK         0.0541 
    132 H132       34.4796    3.0295   -5.4387 H         1 UNK         0.3459 
    133 H133       35.7550    3.1675   -4.2532 H         1 UNK         0.3459 
    134 H134       36.5761   -0.9258   -6.6608 H         1 UNK         0.0612 
    135 H135       35.1856   -1.1374   -7.6698 H         1 UNK         0.0612 
    136 H136       33.8345   -3.2670   -6.9576 H         1 UNK         0.0624 
    137 H137       32.8790   -1.8011   -6.9106 H         1 UNK         0.0624 
@<TRIPOS>BOND
     1    1    2 1    
     2    1   72 1    
     3    1   73 1    
     4    1   74 1    
     5    2    3 2    
     6    2    4 am   BACKBONE|DICT|INTERRES
     7    4    5 1    
     8    4   75 1    
     9    5    6 1    
    10    5   35 1    
    11    5   76 1    
    12    6    7 1    
    13    6   77 1    
    14    6   78 1    
    15    7    8 1    
    16    8    9 1    
    17    8   79 1    
    18    8   80 1    
    19    9   10 ar   
    20    9   14 ar   
    21   10   11 ar   
    22   10   81 1    
    23   11   12 ar   
    24   11   71 1    
    25   12   13 ar   
    26   12   82 1    
    27   13   14 ar   
    28   13   15 1    
    29   14   83 1    
    30   15   16 1    
    31   15   84 1    
    32   15   85 1    
    33   16   17 1    
    34   17   18 1    
    35   17   86 1    
    36   17   87 1    
    37   18   19 1    
    38   18   37 1    
    39   18   88 1    
    40   19   20 am   BACKBONE|DICT|INTERRES
    41   19   89 1    
    42   20   21 2    
    43   20   22 1    
    44   22   23 1    
    45   22   24 1    
    46   22   90 1    
    47   23   91 1    
    48   23   92 1    
    49   23   93 1    
    50   24   25 am   BACKBONE|DICT|INTERRES
    51   24   94 1    
    52   25   26 2    
    53   25   27 1    
    54   27   28 1    
    55   27   29 1    
    56   27   95 1    
    57   28   96 1    
    58   28   97 1    
    59   28   98 1    
    60   29   30 am   BACKBONE|DICT|INTERRES
    61   29   99 1    
    62   30   31 2    
    63   30   32 1    
    64   32   33 1    
    65   32   34 1    
    66   32  100 1    
    67   33  101 1    
    68   33  102 1    
    69   33  103 1    
    70   34   35 am   BACKBONE|DICT|INTERRES
    71   34  104 1    
    72   35   36 2    
    73   37   38 2    
    74   37   39 am   BACKBONE|DICT|INTERRES
    75   39   40 1    
    76   39  105 1    
    77   40   41 1    
    78   40   42 1    
    79   40  106 1    
    80   41  107 1    
    81   41  108 1    
    82   41  109 1    
    83   42   43 2    
    84   42   44 am   BACKBONE|DICT|INTERRES
    85   44   45 1    
    86   44  110 1    
    87   45   46 1    
    88   45   47 1    
    89   45  111 1    
    90   46  112 1    
    91   46  113 1    
    92   46  114 1    
    93   47   48 2    
    94   47   49 am   BACKBONE|DICT|INTERRES
    95   49   50 1    
    96   49  115 1    
    97   50   51 1    
    98   50   52 1    
    99   50  116 1    
   100   51  117 1    
   101   51  118 1    
   102   51  119 1    
   103   52   53 2    
   104   52   54 am   BACKBONE|DICT|INTERRES
   105   54   55 1    
   106   54  120 1    
   107   55   56 1    
   108   55   57 1    
   109   55  121 1    
   110   56  122 1    
   111   56  123 1    
   112   56  124 1    
   113   57   58 2    
   114   57   59 am   BACKBONE|DICT|INTERRES
   115   59   60 1    
   116   59  125 1    
   117   60   61 1    
   118   60   62 1    
   119   60  126 1    
   120   61  127 1    
   121   61  128 1    
   122   61  129 1    
   123   62   63 2    
   124   62   64 am   BACKBONE|DICT|INTERRES
   125   64   65 1    
   126   64  130 1    
   127   65   66 1    
   128   65   69 1    
   129   65  131 1    
   130   66   67 am   BACKBONE|DICT|INTERRES
   131   66   68 2    
   132   67  132 1    
   133   67  133 1    
   134   69   70 1    
   135   69  134 1    
   136   69  135 1    
   137   70   71 1    
   138   71  136 1    
   139   71  137 1    
@<TRIPOS>SUBSTRUCTURE
     1 UNK         1 GROUP             0       ****    0 ROOT    
