@<TRIPOS>MOLECULE
3R137
137   139    1
SMALL
USER_CHARGES


@<TRIPOS>ATOM
      1 CA         27.4155   -6.3267    0.5384 C.3       0 UNK        -0.2020 
      2 C          27.3298   -4.8258    0.7714 C.2       0 UNK         0.4855 
      3 O          26.6459   -4.3873    1.6964 O.2       0 UNK        -0.5197 
      4 N          28.0210   -4.0362   -0.0608 N.am      1 UNK        -0.4892 
      5 CA         28.0467   -2.5684    0.0025 C.3       1 UNK         0.0835 
      6 C6         29.2093   -1.9674   -0.8258 C.3       12 UNK        -0.0855 
      7 S7         30.8615   -2.4353   -0.2001 S.3       12 UNK        -0.2931 
      8 C8         31.2786   -3.9357   -1.1508 C.3       12 UNK         0.0378 
      9 C9         31.2903   -3.6974   -2.6539 C.ar      12 UNK        -0.0802 
     10 C10        32.3836   -3.0724   -3.2599 C.ar      12 UNK        -0.0944 
     11 C11        32.4124   -2.8724   -4.6435 C.ar      12 UNK        -0.0787 
     12 C12        31.3201   -3.2856   -5.4168 C.ar      12 UNK        -0.0862 
     13 C13        30.2133   -3.9021   -4.8221 C.ar      12 UNK        -0.0733 
     14 C14        30.2176   -4.1241   -3.4424 C.ar      12 UNK        -0.0832 
     15 C15        29.0371   -4.3578   -5.6800 C.3       12 UNK         0.0240 
     16 S16        27.4189   -3.8378   -5.0065 S.3       12 UNK        -0.2522 
     17 C17        26.4128   -3.7904   -6.5356 C.3       12 UNK        -0.0967 
     18 CA         26.2278   -2.4031   -7.2227 C.3       5 UNK         0.0660 
     19 N          25.0335   -1.6797   -6.7762 N.am      5 UNK        -0.4015 
     20 C          24.4576   -0.6971   -7.4887 C.2       4 UNK         0.4946 
     21 O          24.8671   -0.3148   -8.5862 O.2       4 UNK        -0.5353 
     22 CA         23.2357   -0.0027   -6.8666 C.3       4 UNK         0.0277 
     23 CB         21.9774   -0.8732   -7.0159 C.3       4 UNK        -0.1981 
     24 N          23.4335    0.3460   -5.4594 N.am      4 UNK        -0.4209 
     25 C          24.3411    1.2282   -5.0170 C.2       3 UNK         0.4942 
     26 O          25.0980    1.8624   -5.7490 O.2       3 UNK        -0.5208 
     27 CA         24.4532    1.4030   -3.4945 C.3       3 UNK         0.0250 
     28 CB         23.4438    2.4488   -2.9944 C.3       3 UNK        -0.1990 
     29 N          24.2854    0.1548   -2.7430 N.am      3 UNK        -0.4232 
     30 C          25.0563   -0.9310   -2.8916 C.2       2 UNK         0.4993 
     31 O          25.9523   -1.0296   -3.7335 O.2       2 UNK        -0.5286 
     32 CA         24.7590   -2.1198   -1.9663 C.3       2 UNK         0.0209 
     33 CB         24.0824   -3.2579   -2.7480 C.3       2 UNK        -0.1931 
     34 N          25.9912   -2.6155   -1.3548 N.am      2 UNK        -0.4546 
     35 C          26.7087   -1.9425   -0.4425 C.2       1 UNK         0.5154 
     36 O          26.3528   -0.8692    0.0477 O.2       1 UNK        -0.5181 
     37 C          27.4682   -1.4901   -7.1838 C.2       5 UNK         0.5014 
     38 O          28.2489   -1.5009   -8.1353 O.2       5 UNK        -0.5248 
     39 N          27.6036   -0.6934   -6.1121 N.am      6 UNK        -0.4434 
     40 CA         28.6898    0.2669   -5.9332 C.3       6 UNK         0.0363 
     41 CB         28.6366    0.8639   -4.5196 C.3       6 UNK        -0.1936 
     42 C          28.6861    1.3700   -7.0012 C.2       6 UNK         0.5081 
     43 O          29.7557    1.7194   -7.4959 O.2       6 UNK        -0.5248 
     44 N          27.4995    1.8703   -7.3740 N.am      7 UNK        -0.4718 
     45 CA         27.3197    2.8206   -8.4736 C.3       7 UNK         0.0273 
     46 CB         25.8820    3.3633   -8.4724 C.3       7 UNK        -0.1935 
     47 C          27.6687    2.2131   -9.8412 C.2       7 UNK         0.5018 
     48 O          28.3658    2.8611  -10.6220 O.2       7 UNK        -0.5186 
     49 N          27.2040    0.9807  -10.0977 N.am      8 UNK        -0.4240 
     50 CA         27.4696    0.2381  -11.3337 C.3       8 UNK         0.0235 
     51 CB         26.5966   -1.0263  -11.3781 C.3       8 UNK        -0.2000 
     52 C          28.9546   -0.1186  -11.5177 C.2       8 UNK         0.4941 
     53 O          29.4837    0.0429  -12.6180 O.2       8 UNK        -0.5273 
     54 N          29.6005   -0.5824  -10.4401 N.am      9 UNK        -0.4262 
     55 CA         31.0196   -0.9453  -10.4106 C.3       9 UNK         0.0264 
     56 CB         31.2470   -1.9324   -9.2556 C.3       9 UNK        -0.1955 
     57 C          31.9698    0.2623  -10.2881 C.2       9 UNK         0.5031 
     58 O          33.1717    0.0894  -10.4963 O.2       9 UNK        -0.5390 
     59 N          31.4292    1.4433   -9.9504 N.am      10 UNK        -0.4204 
     60 CA         32.1267    2.7052   -9.6696 C.3       10 UNK         0.0237 
     61 CB         32.8534    3.2384  -10.9231 C.3       10 UNK        -0.1985 
     62 C          33.0337    2.6122   -8.4250 C.2       10 UNK         0.4970 
     63 O          34.1599    3.1134   -8.4365 O.2       10 UNK        -0.4914 
     64 N          32.5107    1.9739   -7.3726 N.am      11 UNK        -0.4285 
     65 CA         33.1572    1.8010   -6.0624 C.3       11 UNK         0.1007 
     66 C          32.8579    2.9613   -5.0714 C.2       11 UNK         0.5703 
     67 N          31.9335    3.8691   -5.3658 N.am      11 UNK        -0.7361 
     68 O          33.4876    3.0476   -4.0199 O.2       11 UNK        -0.4986 
     69 C69        32.8071    0.4273   -5.4294 C.3       12 UNK        -0.0947 
     70 S70        33.3010   -0.9609   -6.5012 S.3       12 UNK        -0.2240 
     71 C71        33.6579   -2.2765   -5.2943 C.3       12 UNK         0.0194 
     72 H72        26.4239   -6.7323    0.3390 H         1 UNK         0.0906 
     73 H73        28.0589   -6.5746   -0.3057 H         1 UNK         0.0906 
     74 H74        27.8138   -6.8212    1.4240 H         1 UNK         0.0906 
     75 H75        28.5767   -4.4532   -0.7908 H         1 UNK         0.3140 
     76 H76        28.1933   -2.2826    1.0469 H         1 UNK         0.1085 
     77 H77        29.1668   -0.8767   -0.7867 H         1 UNK         0.0836 
     78 H78        29.1096   -2.2175   -1.8821 H         1 UNK         0.0836 
     79 H79        30.5903   -4.7400   -0.8910 H         1 UNK         0.0731 
     80 H80        32.2648   -4.2805   -0.8360 H         1 UNK         0.0731 
     81 H81        33.2214   -2.7598   -2.6513 H         1 UNK         0.1312 
     82 H82        31.3410   -3.1397   -6.4876 H         1 UNK         0.1406 
     83 H83        29.3743   -4.6216   -2.9851 H         1 UNK         0.1631 
     84 H84        29.0551   -5.4448   -5.7672 H         1 UNK         0.0717 
     85 H85        29.1471   -3.9636   -6.6915 H         1 UNK         0.0717 
     86 H86        26.8625   -4.4802   -7.2519 H         1 UNK         0.0934 
     87 H87        25.4389   -4.2284   -6.3117 H         1 UNK         0.0934 
     88 H88        26.0582   -2.6234   -8.2795 H         1 UNK         0.0739 
     89 H89        24.6908   -1.8902   -5.8505 H         1 UNK         0.3093 
     90 H90        23.0723    0.9264   -7.4175 H         1 UNK         0.0818 
     91 H91        21.0883   -0.3475   -6.6670 H         1 UNK         0.0819 
     92 H92        21.8068   -1.1338   -8.0615 H         1 UNK         0.0819 
     93 H93        22.0573   -1.8061   -6.4565 H         1 UNK         0.0819 
     94 H94        22.8529   -0.1246   -4.7809 H         1 UNK         0.3041 
     95 H95        25.4583    1.7745   -3.2846 H         1 UNK         0.0784 
     96 H96        23.5633    3.3922   -3.5294 H         1 UNK         0.0793 
     97 H97        22.4137    2.1206   -3.1389 H         1 UNK         0.0793 
     98 H98        23.5841    2.6611   -1.9343 H         1 UNK         0.0793 
     99 H99        23.5701    0.1526   -2.0297 H         1 UNK         0.3024 
    100 H100       24.0878   -1.7981   -1.1666 H         1 UNK         0.1171 
    101 H101       23.1463   -2.9225   -3.1961 H         1 UNK         0.0786 
    102 H102       24.7162   -3.6279   -3.5547 H         1 UNK         0.0786 
    103 H103       23.8451   -4.0994   -2.0967 H         1 UNK         0.0786 
    104 H104       26.3713   -3.4730   -1.7264 H         1 UNK         0.2977 
    105 H105       26.9433   -0.7884   -5.3423 H         1 UNK         0.3127 
    106 H106       29.6251   -0.2870   -6.0353 H         1 UNK         0.0770 
    107 H107       27.7058    1.4052   -4.3476 H         1 UNK         0.0814 
    108 H108       29.4587    1.5629   -4.3594 H         1 UNK         0.0814 
    109 H109       28.7165    0.0859   -3.7597 H         1 UNK         0.0814 
    110 H110       26.6612    1.5883   -6.8722 H         1 UNK         0.2983 
    111 H111       27.9985    3.6594   -8.3035 H         1 UNK         0.0947 
    112 H112       25.7266    4.0648   -9.2931 H         1 UNK         0.0806 
    113 H113       25.6618    3.8949   -7.5465 H         1 UNK         0.0806 
    114 H114       25.1480    2.5636   -8.5801 H         1 UNK         0.0806 
    115 H115       26.6099    0.5281   -9.4099 H         1 UNK         0.3000 
    116 H116       27.1798    0.8776  -12.1702 H         1 UNK         0.0850 
    117 H117       26.8147   -1.6974  -10.5469 H         1 UNK         0.0810 
    118 H118       26.7619   -1.5838  -12.3010 H         1 UNK         0.0810 
    119 H119       25.5361   -0.7769  -11.3352 H         1 UNK         0.0810 
    120 H120       29.0726   -0.7496   -9.5832 H         1 UNK         0.3040 
    121 H121       31.2668   -1.4562  -11.3436 H         1 UNK         0.0766 
    122 H122       30.9890   -1.4829   -8.2962 H         1 UNK         0.0812 
    123 H123       32.2904   -2.2460   -9.2032 H         1 UNK         0.0812 
    124 H124       30.6422   -2.8313   -9.3753 H         1 UNK         0.0812 
    125 H125       30.4347    1.4558   -9.7623 H         1 UNK         0.3205 
    126 H126       31.3456    3.4242   -9.4174 H         1 UNK         0.0754 
    127 H127       33.2485    4.2397  -10.7477 H         1 UNK         0.0769 
    128 H128       32.1765    3.3022  -11.7751 H         1 UNK         0.0769 
    129 H129       33.6936    2.6045  -11.2080 H         1 UNK         0.0769 
    130 H130       31.5417    1.6671   -7.4348 H         1 UNK         0.2981 
    131 H131       34.2382    1.8173   -6.2127 H         1 UNK         0.0541 
    132 H132       31.4059    3.8002   -6.2212 H         1 UNK         0.3459 
    133 H133       31.7553    4.6204   -4.7187 H         1 UNK         0.3459 
    134 H134       31.7378    0.3511   -5.2309 H         1 UNK         0.0612 
    135 H135       33.3073    0.3144   -4.4659 H         1 UNK         0.0612 
    136 H136       34.3475   -1.8889   -4.5428 H         1 UNK         0.0624 
    137 H137       34.1881   -3.0778   -5.8103 H         1 UNK         0.0624 
@<TRIPOS>BOND
     1    1    2 1    
     2    1   72 1    
     3    1   73 1    
     4    1   74 1    
     5    2    3 2    
     6    2    4 am   BACKBONE|DICT|INTERRES
     7    4    5 1    
     8    4   75 1    
     9    5    6 1    
    10    5   35 1    
    11    5   76 1    
    12    6    7 1    
    13    6   77 1    
    14    6   78 1    
    15    7    8 1    
    16    8    9 1    
    17    8   79 1    
    18    8   80 1    
    19    9   10 ar   
    20    9   14 ar   
    21   10   11 ar   
    22   10   81 1    
    23   11   12 ar   
    24   11   71 1    
    25   12   13 ar   
    26   12   82 1    
    27   13   14 ar   
    28   13   15 1    
    29   14   83 1    
    30   15   16 1    
    31   15   84 1    
    32   15   85 1    
    33   16   17 1    
    34   17   18 1    
    35   17   86 1    
    36   17   87 1    
    37   18   19 1    
    38   18   37 1    
    39   18   88 1    
    40   19   20 am   BACKBONE|DICT|INTERRES
    41   19   89 1    
    42   20   21 2    
    43   20   22 1    
    44   22   23 1    
    45   22   24 1    
    46   22   90 1    
    47   23   91 1    
    48   23   92 1    
    49   23   93 1    
    50   24   25 am   BACKBONE|DICT|INTERRES
    51   24   94 1    
    52   25   26 2    
    53   25   27 1    
    54   27   28 1    
    55   27   29 1    
    56   27   95 1    
    57   28   96 1    
    58   28   97 1    
    59   28   98 1    
    60   29   30 am   BACKBONE|DICT|INTERRES
    61   29   99 1    
    62   30   31 2    
    63   30   32 1    
    64   32   33 1    
    65   32   34 1    
    66   32  100 1    
    67   33  101 1    
    68   33  102 1    
    69   33  103 1    
    70   34   35 am   BACKBONE|DICT|INTERRES
    71   34  104 1    
    72   35   36 2    
    73   37   38 2    
    74   37   39 am   BACKBONE|DICT|INTERRES
    75   39   40 1    
    76   39  105 1    
    77   40   41 1    
    78   40   42 1    
    79   40  106 1    
    80   41  107 1    
    81   41  108 1    
    82   41  109 1    
    83   42   43 2    
    84   42   44 am   BACKBONE|DICT|INTERRES
    85   44   45 1    
    86   44  110 1    
    87   45   46 1    
    88   45   47 1    
    89   45  111 1    
    90   46  112 1    
    91   46  113 1    
    92   46  114 1    
    93   47   48 2    
    94   47   49 am   BACKBONE|DICT|INTERRES
    95   49   50 1    
    96   49  115 1    
    97   50   51 1    
    98   50   52 1    
    99   50  116 1    
   100   51  117 1    
   101   51  118 1    
   102   51  119 1    
   103   52   53 2    
   104   52   54 am   BACKBONE|DICT|INTERRES
   105   54   55 1    
   106   54  120 1    
   107   55   56 1    
   108   55   57 1    
   109   55  121 1    
   110   56  122 1    
   111   56  123 1    
   112   56  124 1    
   113   57   58 2    
   114   57   59 am   BACKBONE|DICT|INTERRES
   115   59   60 1    
   116   59  125 1    
   117   60   61 1    
   118   60   62 1    
   119   60  126 1    
   120   61  127 1    
   121   61  128 1    
   122   61  129 1    
   123   62   63 2    
   124   62   64 am   BACKBONE|DICT|INTERRES
   125   64   65 1    
   126   64  130 1    
   127   65   66 1    
   128   65   69 1    
   129   65  131 1    
   130   66   67 am   BACKBONE|DICT|INTERRES
   131   66   68 2    
   132   67  132 1    
   133   67  133 1    
   134   69   70 1    
   135   69  134 1    
   136   69  135 1    
   137   70   71 1    
   138   71  136 1    
   139   71  137 1    
@<TRIPOS>SUBSTRUCTURE
     1 UNK         1 GROUP             0       ****    0 ROOT    
