@<TRIPOS>MOLECULE
3R137
137   139    1
SMALL
USER_CHARGES


@<TRIPOS>ATOM
      1 CA         28.0010    0.6929   -1.2109 C.3       0 UNK        -0.2020 
      2 C          27.6584   -0.7045   -1.7013 C.2       0 UNK         0.4855 
      3 O          27.1586   -0.8652   -2.8185 O.2       0 UNK        -0.5197 
      4 N          27.8848   -1.7155   -0.8535 N.am      1 UNK        -0.4892 
      5 CA         27.6298   -3.1411   -1.1037 C.3       1 UNK         0.0835 
      6 C6         28.4473   -4.0519   -0.1495 C.3       12 UNK        -0.0855 
      7 S7         30.2334   -3.6769   -0.1112 S.3       12 UNK        -0.2931 
      8 C8         30.9023   -4.8266   -1.3538 C.3       12 UNK         0.0378 
      9 C9         30.9495   -4.1997   -2.7400 C.ar      12 UNK        -0.0802 
     10 C10        31.9072   -3.2204   -3.0222 C.ar      12 UNK        -0.0944 
     11 C11        32.0182   -2.6800   -4.3058 C.ar      12 UNK        -0.0787 
     12 C12        31.1460   -3.1180   -5.3060 C.ar      12 UNK        -0.0862 
     13 C13        30.1723   -4.0865   -5.0405 C.ar      12 UNK        -0.0733 
     14 C14        30.0841   -4.6294   -3.7521 C.ar      12 UNK        -0.0832 
     15 C15        29.2846   -4.5778   -6.1830 C.3       12 UNK         0.0240 
     16 S16        27.5498   -4.9151   -5.7251 S.3       12 UNK        -0.2522 
     17 C17        26.9508   -3.2782   -5.2016 C.3       12 UNK        -0.0967 
     18 CA         26.5800   -2.3481   -6.3923 C.3       5 UNK         0.0660 
     19 N          25.2845   -1.6874   -6.2085 N.am      5 UNK        -0.4015 
     20 C          24.6710   -0.9009   -7.1076 C.2       4 UNK         0.4946 
     21 O          25.1017   -0.6744   -8.2378 O.2       4 UNK        -0.5353 
     22 CA         23.3633   -0.2251   -6.6601 C.3       4 UNK         0.0277 
     23 CB         22.1536   -1.0906   -7.0457 C.3       4 UNK        -0.1981 
     24 N          23.3186    0.0561   -5.2244 N.am      4 UNK        -0.4209 
     25 C          24.1539    0.8588   -4.5522 C.2       3 UNK         0.4942 
     26 O          25.0594    1.5046   -5.0809 O.2       3 UNK        -0.5208 
     27 CA         23.9882    0.8888   -3.0233 C.3       3 UNK         0.0250 
     28 CB         22.6840    1.5928   -2.5993 C.3       3 UNK        -0.1990 
     29 N          24.1267   -0.4422   -2.4117 N.am      3 UNK        -0.4232 
     30 C          23.3423   -1.5255   -2.5456 C.2       2 UNK         0.4993 
     31 O          22.2694   -1.5194   -3.1510 O.2       2 UNK        -0.5286 
     32 CA         23.8844   -2.8496   -1.9783 C.3       2 UNK         0.0209 
     33 CB         23.4106   -4.0763   -2.7844 C.3       2 UNK        -0.1931 
     34 N          25.3477   -2.8236   -1.9270 N.am      2 UNK        -0.4546 
     35 C          26.1158   -3.4542   -1.0355 C.2       1 UNK         0.5154 
     36 O          25.6682   -4.2092   -0.1700 O.2       1 UNK        -0.5181 
     37 C          27.6851   -1.3136   -6.6725 C.2       5 UNK         0.5014 
     38 O          28.2864   -1.3431   -7.7466 O.2       5 UNK        -0.5248 
     39 N          27.8919   -0.3871   -5.7251 N.am      6 UNK        -0.4434 
     40 CA         28.8556    0.7045   -5.8561 C.3       6 UNK         0.0363 
     41 CB         29.0363    1.4149   -4.5097 C.3       6 UNK        -0.1936 
     42 C          28.5008    1.7093   -6.9595 C.2       6 UNK         0.5081 
     43 O          29.4127    2.2089   -7.6147 O.2       6 UNK        -0.5248 
     44 N          27.2040    1.9701   -7.1818 N.am      7 UNK        -0.4718 
     45 CA         26.7293    2.8317   -8.2709 C.3       7 UNK         0.0273 
     46 CB         25.2138    3.0484   -8.1509 C.3       7 UNK        -0.1935 
     47 C          27.0922    2.2916   -9.6666 C.2       7 UNK         0.5018 
     48 O          27.4621    3.0795  -10.5380 O.2       7 UNK        -0.5186 
     49 N          27.0021    0.9664   -9.8460 N.am      8 UNK        -0.4240 
     50 CA         27.4112    0.2736  -11.0664 C.3       8 UNK         0.0235 
     51 CB         26.7204   -1.0985  -11.1345 C.3       8 UNK        -0.2000 
     52 C          28.9374    0.1184  -11.1680 C.2       8 UNK         0.4941 
     53 O          29.5026    0.4012  -12.2252 O.2       8 UNK        -0.5273 
     54 N          29.5726   -0.3566  -10.0877 N.am      9 UNK        -0.4262 
     55 CA         30.9893   -0.7305  -10.0667 C.3       9 UNK         0.0264 
     56 CB         31.2293   -1.7020   -8.9022 C.3       9 UNK        -0.1955 
     57 C          31.9655    0.4492   -9.9482 C.2       9 UNK         0.5031 
     58 O          33.1380    0.2747  -10.2825 O.2       9 UNK        -0.5390 
     59 N          31.5143    1.5869   -9.4011 N.am      10 UNK        -0.4204 
     60 CA         32.2745    2.7895   -9.0208 C.3       10 UNK         0.0237 
     61 CB         33.0228    3.4077  -10.2188 C.3       10 UNK        -0.1985 
     62 C          33.2100    2.5932   -7.8099 C.2       10 UNK         0.4970 
     63 O          33.3856    3.5372   -7.0390 O.2       10 UNK        -0.4914 
     64 N          33.7793    1.3900   -7.6586 N.am      11 UNK        -0.4285 
     65 CA         34.6737    0.9542   -6.5712 C.3       11 UNK         0.1007 
     66 C          36.0680    1.6542   -6.5580 C.2       11 UNK         0.5703 
     67 N          36.4911    2.3073   -7.6342 N.am      11 UNK        -0.7361 
     68 O          36.7983    1.5771   -5.5724 O.2       11 UNK        -0.4986 
     69 C69        33.9906    0.9462   -5.1705 C.3       12 UNK        -0.0947 
     70 S70        32.4608   -0.0482   -5.1021 S.3       12 UNK        -0.2240 
     71 C71        33.1197   -1.6747   -4.6232 C.3       12 UNK         0.0194 
     72 H72        27.8439    0.7850   -0.1365 H         1 UNK         0.0906 
     73 H73        29.0436    0.9245   -1.4249 H         1 UNK         0.0906 
     74 H74        27.3754    1.4354   -1.7054 H         1 UNK         0.0906 
     75 H75        28.2943   -1.5143    0.0481 H         1 UNK         0.3140 
     76 H76        27.9540   -3.3650   -2.1218 H         1 UNK         0.1085 
     77 H77        28.0830   -3.9479    0.8746 H         1 UNK         0.0836 
     78 H78        28.3035   -5.1026   -0.4084 H         1 UNK         0.0836 
     79 H79        31.9164   -5.1005   -1.0588 H         1 UNK         0.0731 
     80 H80        30.3331   -5.7573   -1.3593 H         1 UNK         0.0731 
     81 H81        32.5840   -2.8992   -2.2419 H         1 UNK         0.1312 
     82 H82        31.2445   -2.7162   -6.3022 H         1 UNK         0.1406 
     83 H83        29.3568   -5.4020   -3.5433 H         1 UNK         0.1631 
     84 H84        29.7180   -5.4974   -6.5778 H         1 UNK         0.0717 
     85 H85        29.2899   -3.8635   -7.0074 H         1 UNK         0.0717 
     86 H86        26.0721   -3.4754   -4.5879 H         1 UNK         0.0934 
     87 H87        27.6781   -2.8322   -4.5209 H         1 UNK         0.0934 
     88 H88        26.4748   -2.9532   -7.2957 H         1 UNK         0.0739 
     89 H89        24.8406   -1.7998   -5.3115 H         1 UNK         0.3093 
     90 H90        23.2811    0.7274   -7.1842 H         1 UNK         0.0818 
     91 H91        21.2154   -0.5857   -6.8151 H         1 UNK         0.0819 
     92 H92        22.1510   -1.3031   -8.1159 H         1 UNK         0.0819 
     93 H93        22.1567   -2.0476   -6.5220 H         1 UNK         0.0819 
     94 H94        22.6465   -0.4695   -4.6692 H         1 UNK         0.3041 
     95 H95        24.8177    1.4813   -2.6335 H         1 UNK         0.0784 
     96 H96        22.6459    2.6079   -2.9966 H         1 UNK         0.0793 
     97 H97        21.7949    1.0735   -2.9573 H         1 UNK         0.0793 
     98 H98        22.6116    1.6674   -1.5143 H         1 UNK         0.0793 
     99 H99        24.9901   -0.5694   -1.9027 H         1 UNK         0.3024 
    100 H100       23.4924   -2.9293   -0.9615 H         1 UNK         0.1171 
    101 H101       22.3223   -4.1512   -2.7832 H         1 UNK         0.0786 
    102 H102       23.7942   -5.0040   -2.3594 H         1 UNK         0.0786 
    103 H103       23.7336   -4.0258   -3.8244 H         1 UNK         0.0786 
    104 H104       25.8206   -2.1759   -2.5524 H         1 UNK         0.2977 
    105 H105       27.3804   -0.4387   -4.8502 H         1 UNK         0.3127 
    106 H106       29.8111    0.2586   -6.1347 H         1 UNK         0.0770 
    107 H107       28.0901    1.7967   -4.1246 H         1 UNK         0.0814 
    108 H108       29.7225    2.2582   -4.6003 H         1 UNK         0.0814 
    109 H109       29.4620    0.7353   -3.7727 H         1 UNK         0.0814 
    110 H110       26.5050    1.5696   -6.5638 H         1 UNK         0.2983 
    111 H111       27.2198    3.8008   -8.1558 H         1 UNK         0.0947 
    112 H112       24.6634    2.1268   -8.3337 H         1 UNK         0.0806 
    113 H113       24.9379    3.4192   -7.1635 H         1 UNK         0.0806 
    114 H114       24.8686    3.7806   -8.8819 H         1 UNK         0.0806 
    115 H115       26.6341    0.3917   -9.0933 H         1 UNK         0.3000 
    116 H116       27.0774    0.8590  -11.9261 H         1 UNK         0.0850 
    117 H117       27.0059   -1.6371  -12.0390 H         1 UNK         0.0810 
    118 H118       25.6354   -0.9934  -11.1469 H         1 UNK         0.0810 
    119 H119       26.9816   -1.7266  -10.2814 H         1 UNK         0.0810 
    120 H120       29.0287   -0.5972   -9.2595 H         1 UNK         0.3040 
    121 H121       31.2202   -1.2537  -10.9972 H         1 UNK         0.0766 
    122 H122       32.2605   -2.0575   -8.8884 H         1 UNK         0.0812 
    123 H123       30.5836   -2.5775   -8.9720 H         1 UNK         0.0812 
    124 H124       31.0373   -1.2142   -7.9461 H         1 UNK         0.0812 
    125 H125       30.5559    1.5972   -9.0594 H         1 UNK         0.3205 
    126 H126       31.5214    3.5136   -8.7061 H         1 UNK         0.0754 
    127 H127       33.4621    4.3680   -9.9457 H         1 UNK         0.0769 
    128 H128       32.3486    3.5861  -11.0565 H         1 UNK         0.0769 
    129 H129       33.8352    2.7718  -10.5709 H         1 UNK         0.0769 
    130 H130       33.6288    0.7177   -8.4024 H         1 UNK         0.2981 
    131 H131       34.9074   -0.0840   -6.8081 H         1 UNK         0.0541 
    132 H132       35.9118    2.3673   -8.4558 H         1 UNK         0.3459 
    133 H133       37.3984    2.7458   -7.6205 H         1 UNK         0.3459 
    134 H134       33.7429    1.9636   -4.8650 H         1 UNK         0.0612 
    135 H135       34.6746    0.5686   -4.4089 H         1 UNK         0.0612 
    136 H136       33.7793   -1.5518   -3.7629 H         1 UNK         0.0624 
    137 H137       33.7369   -2.0622   -5.4348 H         1 UNK         0.0624 
@<TRIPOS>BOND
     1    1    2 1    
     2    1   72 1    
     3    1   73 1    
     4    1   74 1    
     5    2    3 2    
     6    2    4 am   BACKBONE|DICT|INTERRES
     7    4    5 1    
     8    4   75 1    
     9    5    6 1    
    10    5   35 1    
    11    5   76 1    
    12    6    7 1    
    13    6   77 1    
    14    6   78 1    
    15    7    8 1    
    16    8    9 1    
    17    8   79 1    
    18    8   80 1    
    19    9   10 ar   
    20    9   14 ar   
    21   10   11 ar   
    22   10   81 1    
    23   11   12 ar   
    24   11   71 1    
    25   12   13 ar   
    26   12   82 1    
    27   13   14 ar   
    28   13   15 1    
    29   14   83 1    
    30   15   16 1    
    31   15   84 1    
    32   15   85 1    
    33   16   17 1    
    34   17   18 1    
    35   17   86 1    
    36   17   87 1    
    37   18   19 1    
    38   18   37 1    
    39   18   88 1    
    40   19   20 am   BACKBONE|DICT|INTERRES
    41   19   89 1    
    42   20   21 2    
    43   20   22 1    
    44   22   23 1    
    45   22   24 1    
    46   22   90 1    
    47   23   91 1    
    48   23   92 1    
    49   23   93 1    
    50   24   25 am   BACKBONE|DICT|INTERRES
    51   24   94 1    
    52   25   26 2    
    53   25   27 1    
    54   27   28 1    
    55   27   29 1    
    56   27   95 1    
    57   28   96 1    
    58   28   97 1    
    59   28   98 1    
    60   29   30 am   BACKBONE|DICT|INTERRES
    61   29   99 1    
    62   30   31 2    
    63   30   32 1    
    64   32   33 1    
    65   32   34 1    
    66   32  100 1    
    67   33  101 1    
    68   33  102 1    
    69   33  103 1    
    70   34   35 am   BACKBONE|DICT|INTERRES
    71   34  104 1    
    72   35   36 2    
    73   37   38 2    
    74   37   39 am   BACKBONE|DICT|INTERRES
    75   39   40 1    
    76   39  105 1    
    77   40   41 1    
    78   40   42 1    
    79   40  106 1    
    80   41  107 1    
    81   41  108 1    
    82   41  109 1    
    83   42   43 2    
    84   42   44 am   BACKBONE|DICT|INTERRES
    85   44   45 1    
    86   44  110 1    
    87   45   46 1    
    88   45   47 1    
    89   45  111 1    
    90   46  112 1    
    91   46  113 1    
    92   46  114 1    
    93   47   48 2    
    94   47   49 am   BACKBONE|DICT|INTERRES
    95   49   50 1    
    96   49  115 1    
    97   50   51 1    
    98   50   52 1    
    99   50  116 1    
   100   51  117 1    
   101   51  118 1    
   102   51  119 1    
   103   52   53 2    
   104   52   54 am   BACKBONE|DICT|INTERRES
   105   54   55 1    
   106   54  120 1    
   107   55   56 1    
   108   55   57 1    
   109   55  121 1    
   110   56  122 1    
   111   56  123 1    
   112   56  124 1    
   113   57   58 2    
   114   57   59 am   BACKBONE|DICT|INTERRES
   115   59   60 1    
   116   59  125 1    
   117   60   61 1    
   118   60   62 1    
   119   60  126 1    
   120   61  127 1    
   121   61  128 1    
   122   61  129 1    
   123   62   63 2    
   124   62   64 am   BACKBONE|DICT|INTERRES
   125   64   65 1    
   126   64  130 1    
   127   65   66 1    
   128   65   69 1    
   129   65  131 1    
   130   66   67 am   BACKBONE|DICT|INTERRES
   131   66   68 2    
   132   67  132 1    
   133   67  133 1    
   134   69   70 1    
   135   69  134 1    
   136   69  135 1    
   137   70   71 1    
   138   71  136 1    
   139   71  137 1    
@<TRIPOS>SUBSTRUCTURE
     1 UNK         1 GROUP             0       ****    0 ROOT    
