@<TRIPOS>MOLECULE
3R137
137   139    1
SMALL
USER_CHARGES


@<TRIPOS>ATOM
      1 CA         25.2254   -7.1982   -0.6734 C.3       0 UNK        -0.2020 
      2 C          25.9445   -5.8582   -0.6939 C.2       0 UNK         0.4855 
      3 O          25.7759   -5.0566    0.2257 O.2       0 UNK        -0.5197 
      4 N          26.7366   -5.5974   -1.7412 N.am      1 UNK        -0.4892 
      5 CA         27.5367   -4.3811   -1.9370 C.3       1 UNK         0.0835 
      6 C6         28.7097   -4.6263   -2.9251 C.3       12 UNK        -0.0855 
      7 S7         30.0351   -5.6723   -2.2389 S.3       12 UNK        -0.2931 
      8 C8         30.8665   -4.5600   -1.0466 C.3       12 UNK         0.0378 
      9 C9         31.0573   -3.1303   -1.5485 C.ar      12 UNK        -0.0802 
     10 C10        31.8677   -2.8656   -2.6578 C.ar      12 UNK        -0.0944 
     11 C11        32.0504   -1.5529   -3.1052 C.ar      12 UNK        -0.0787 
     12 C12        31.4276   -0.5008   -2.4272 C.ar      12 UNK        -0.0862 
     13 C13        30.6054   -0.7491   -1.3231 C.ar      12 UNK        -0.0733 
     14 C14        30.4270   -2.0676   -0.8907 C.ar      12 UNK        -0.0832 
     15 C15        29.9384    0.3937   -0.5582 C.3       12 UNK         0.0240 
     16 S16        29.2110    1.6933   -1.6168 S.3       12 UNK        -0.2522 
     17 C17        27.9530    0.7663   -2.5547 C.3       12 UNK        -0.0967 
     18 CA         28.1383    0.9270   -4.0866 C.3       5 UNK         0.0660 
     19 N          27.7252   -0.2741   -4.8092 N.am      5 UNK        -0.4015 
     20 C          27.9520   -0.5168   -6.1057 C.2       4 UNK         0.4946 
     21 O          28.6446    0.1976   -6.8246 O.2       4 UNK        -0.5353 
     22 CA         27.2759   -1.7581   -6.7087 C.3       4 UNK         0.0277 
     23 CB         28.2172   -2.9718   -6.6396 C.3       4 UNK        -0.1981 
     24 N          26.0036   -2.0783   -6.0544 N.am      4 UNK        -0.4209 
     25 C          24.8705   -1.3817   -6.2198 C.2       3 UNK         0.4942 
     26 O          24.7659   -0.4130   -6.9713 O.2       3 UNK        -0.5208 
     27 CA         23.6568   -1.8167   -5.3797 C.3       3 UNK         0.0250 
     28 CB         22.9801   -3.0505   -5.9982 C.3       3 UNK        -0.1990 
     29 N          23.9903   -2.0864   -3.9778 N.am      3 UNK        -0.4232 
     30 C          24.4221   -1.1574   -3.1134 C.2       2 UNK         0.4993 
     31 O          24.5799    0.0284   -3.4050 O.2       2 UNK        -0.5286 
     32 CA         24.7943   -1.6370   -1.6977 C.3       2 UNK         0.0209 
     33 CB         23.5314   -1.8095   -0.8388 C.3       2 UNK        -0.1931 
     34 N          25.6075   -2.8616   -1.6194 N.am      2 UNK        -0.4546 
     35 C          26.6840   -3.1623   -2.3596 C.2       1 UNK         0.5154 
     36 O          27.0204   -2.5068   -3.3431 O.2       1 UNK        -0.5181 
     37 C          27.4109    2.1766   -4.6280 C.2       5 UNK         0.5014 
     38 O          28.0540    3.2014   -4.8602 O.2       5 UNK        -0.5248 
     39 N          26.0889    2.0605   -4.8375 N.am      6 UNK        -0.4434 
     40 CA         25.2433    3.0881   -5.4478 C.3       6 UNK         0.0363 
     41 CB         23.7619    2.7106   -5.2844 C.3       6 UNK        -0.1936 
     42 C          25.5968    3.3279   -6.9244 C.2       6 UNK         0.5081 
     43 O          25.8909    4.4627   -7.3029 O.2       6 UNK        -0.5248 
     44 N          25.6122    2.2577   -7.7303 N.am      7 UNK        -0.4718 
     45 CA         26.0490    2.2718   -9.1296 C.3       7 UNK         0.0273 
     46 CB         25.3315    1.1408   -9.8901 C.3       7 UNK        -0.1935 
     47 C          27.5823    2.1568   -9.2099 C.2       7 UNK         0.5018 
     48 O          28.0928    1.1897   -9.7771 O.2       7 UNK        -0.5186 
     49 N          28.2725    3.1441   -8.6168 N.am      8 UNK        -0.4240 
     50 CA         29.6982    3.1751   -8.2538 C.3       8 UNK         0.0235 
     51 CB         30.0604    4.5941   -7.7874 C.3       8 UNK        -0.2000 
     52 C          30.7107    2.6882   -9.3057 C.2       8 UNK         0.4941 
     53 O          31.7663    2.1808   -8.9261 O.2       8 UNK        -0.5273 
     54 N          30.3759    2.8112  -10.5979 N.am      9 UNK        -0.4262 
     55 CA         31.1380    2.2542  -11.7200 C.3       9 UNK         0.0264 
     56 CB         30.4679    2.6638  -13.0410 C.3       9 UNK        -0.1955 
     57 C          31.3131    0.7228  -11.6573 C.2       9 UNK         0.5031 
     58 O          32.3161    0.2165  -12.1625 O.2       9 UNK        -0.5390 
     59 N          30.3737    0.0146  -11.0105 N.am      10 UNK        -0.4204 
     60 CA         30.4288   -1.4299  -10.7656 C.3       10 UNK         0.0237 
     61 CB         29.0904   -1.8927  -10.1719 C.3       10 UNK        -0.1985 
     62 C          31.5961   -1.8669   -9.8600 C.2       10 UNK         0.4970 
     63 O          32.0362   -3.0116   -9.9740 O.2       10 UNK        -0.4914 
     64 N          32.0913   -0.9617   -9.0048 N.am      11 UNK        -0.4285 
     65 CA         33.3120   -1.1562   -8.2074 C.3       11 UNK         0.1007 
     66 C          34.6284   -0.9459   -9.0157 C.2       11 UNK         0.5703 
     67 N          34.5951   -0.5244  -10.2760 N.am      11 UNK        -0.7361 
     68 O          35.7122   -1.1889   -8.4899 O.2       11 UNK        -0.4986 
     69 C69        33.2965   -0.2953   -6.9166 C.3       12 UNK        -0.0947 
     70 S70        31.9659   -0.7747   -5.7627 S.3       12 UNK        -0.2240 
     71 C71        32.9403   -1.2579   -4.3031 C.3       12 UNK         0.0194 
     72 H72        25.5067   -7.7604    0.2167 H         1 UNK         0.0906 
     73 H73        24.1468   -7.0449   -0.6528 H         1 UNK         0.0906 
     74 H74        25.4657   -7.8042   -1.5468 H         1 UNK         0.0906 
     75 H75        26.8270   -6.2912   -2.4703 H         1 UNK         0.3140 
     76 H76        27.9674   -4.1033   -0.9732 H         1 UNK         0.1085 
     77 H77        28.3398   -5.0961   -3.8380 H         1 UNK         0.0836 
     78 H78        29.1706   -3.6947   -3.2558 H         1 UNK         0.0836 
     79 H79        31.8422   -4.9808   -0.7999 H         1 UNK         0.0731 
     80 H80        30.2959   -4.5660   -0.1167 H         1 UNK         0.0731 
     81 H81        32.3523   -3.6844   -3.1719 H         1 UNK         0.1312 
     82 H82        31.5821    0.5144   -2.7663 H         1 UNK         0.1406 
     83 H83        29.8054   -2.2658   -0.0280 H         1 UNK         0.1631 
     84 H84        30.6838    0.8541    0.0914 H         1 UNK         0.0717 
     85 H85        29.1547    0.0110    0.0976 H         1 UNK         0.0717 
     86 H86        28.0337   -0.2845   -2.2757 H         1 UNK         0.0934 
     87 H87        26.9582    1.0747   -2.2268 H         1 UNK         0.0934 
     88 H88        29.2031    1.0490   -4.2997 H         1 UNK         0.0739 
     89 H89        27.2408   -0.9902   -4.2717 H         1 UNK         0.3093 
     90 H90        27.0686   -1.5408   -7.7585 H         1 UNK         0.0818 
     91 H91        28.4421   -3.2485   -5.6099 H         1 UNK         0.0819 
     92 H92        27.7854   -3.8398   -7.1375 H         1 UNK         0.0819 
     93 H93        29.1685   -2.7555   -7.1283 H         1 UNK         0.0819 
     94 H94        26.0302   -2.7955   -5.3422 H         1 UNK         0.3041 
     95 H95        22.9382   -0.9942   -5.3958 H         1 UNK         0.0784 
     96 H96        22.7101   -2.8654   -7.0390 H         1 UNK         0.0793 
     97 H97        23.6330   -3.9242   -5.9813 H         1 UNK         0.0793 
     98 H98        22.0624   -3.3066   -5.4684 H         1 UNK         0.0793 
     99 H99        23.9093   -3.0401   -3.6564 H         1 UNK         0.3024 
    100 H100       25.3937   -0.8412   -1.2510 H         1 UNK         0.1171 
    101 H101       23.7843   -1.9982    0.2048 H         1 UNK         0.0786 
    102 H102       22.9143   -0.9099   -0.8627 H         1 UNK         0.0786 
    103 H103       22.9151   -2.6386   -1.1887 H         1 UNK         0.0786 
    104 H104       25.4181   -3.4841   -0.8381 H         1 UNK         0.2977 
    105 H105       25.6220    1.2039   -4.5499 H         1 UNK         0.3127 
    106 H106       25.4143    4.0228   -4.9096 H         1 UNK         0.0770 
    107 H107       23.5296    1.7573   -5.7603 H         1 UNK         0.0814 
    108 H108       23.1144    3.4663   -5.7309 H         1 UNK         0.0814 
    109 H109       23.4892    2.6300   -4.2319 H         1 UNK         0.0814 
    110 H110       25.3733    1.3451   -7.3466 H         1 UNK         0.2983 
    111 H111       25.7625    3.2186   -9.5928 H         1 UNK         0.0947 
    112 H112       25.5960    1.1531  -10.9481 H         1 UNK         0.0806 
    113 H113       24.2482    1.2421   -9.8238 H         1 UNK         0.0806 
    114 H114       25.5999    0.1585   -9.4989 H         1 UNK         0.0806 
    115 H115       27.7063    3.8664   -8.1854 H         1 UNK         0.3000 
    116 H116       29.8049    2.5079   -7.3966 H         1 UNK         0.0850 
    117 H117       31.1056    4.6516   -7.4794 H         1 UNK         0.0810 
    118 H118       29.4570    4.8939   -6.9299 H         1 UNK         0.0810 
    119 H119       29.9109    5.3289   -8.5794 H         1 UNK         0.0810 
    120 H120       29.4793    3.2215  -10.8143 H         1 UNK         0.3040 
    121 H121       32.1362    2.6959  -11.6886 H         1 UNK         0.0766 
    122 H122       30.4205    3.7480  -13.1438 H         1 UNK         0.0812 
    123 H123       29.4524    2.2726  -13.1162 H         1 UNK         0.0812 
    124 H124       31.0280    2.2833  -13.8965 H         1 UNK         0.0812 
    125 H125       29.5797    0.5094  -10.6019 H         1 UNK         0.3205 
    126 H126       30.5640   -1.9229  -11.7304 H         1 UNK         0.0754 
    127 H127       29.0878   -2.9680   -9.9886 H         1 UNK         0.0769 
    128 H128       28.2592   -1.6724  -10.8421 H         1 UNK         0.0769 
    129 H129       28.8937   -1.3951   -9.2226 H         1 UNK         0.0769 
    130 H130       31.6947   -0.0303   -8.9786 H         1 UNK         0.2981 
    131 H131       33.3390   -2.2004   -7.8903 H         1 UNK         0.0541 
    132 H132       33.7198   -0.3295  -10.7473 H         1 UNK         0.3459 
    133 H133       35.4637   -0.4055  -10.7723 H         1 UNK         0.3459 
    134 H134       34.2521   -0.3710   -6.3948 H         1 UNK         0.0612 
    135 H135       33.1760    0.7606   -7.1616 H         1 UNK         0.0612 
    136 H136       33.6292   -0.4523   -4.0446 H         1 UNK         0.0624 
    137 H137       33.5535   -2.1250   -4.5538 H         1 UNK         0.0624 
@<TRIPOS>BOND
     1    1    2 1    
     2    1   72 1    
     3    1   73 1    
     4    1   74 1    
     5    2    3 2    
     6    2    4 am   BACKBONE|DICT|INTERRES
     7    4    5 1    
     8    4   75 1    
     9    5    6 1    
    10    5   35 1    
    11    5   76 1    
    12    6    7 1    
    13    6   77 1    
    14    6   78 1    
    15    7    8 1    
    16    8    9 1    
    17    8   79 1    
    18    8   80 1    
    19    9   10 ar   
    20    9   14 ar   
    21   10   11 ar   
    22   10   81 1    
    23   11   12 ar   
    24   11   71 1    
    25   12   13 ar   
    26   12   82 1    
    27   13   14 ar   
    28   13   15 1    
    29   14   83 1    
    30   15   16 1    
    31   15   84 1    
    32   15   85 1    
    33   16   17 1    
    34   17   18 1    
    35   17   86 1    
    36   17   87 1    
    37   18   19 1    
    38   18   37 1    
    39   18   88 1    
    40   19   20 am   BACKBONE|DICT|INTERRES
    41   19   89 1    
    42   20   21 2    
    43   20   22 1    
    44   22   23 1    
    45   22   24 1    
    46   22   90 1    
    47   23   91 1    
    48   23   92 1    
    49   23   93 1    
    50   24   25 am   BACKBONE|DICT|INTERRES
    51   24   94 1    
    52   25   26 2    
    53   25   27 1    
    54   27   28 1    
    55   27   29 1    
    56   27   95 1    
    57   28   96 1    
    58   28   97 1    
    59   28   98 1    
    60   29   30 am   BACKBONE|DICT|INTERRES
    61   29   99 1    
    62   30   31 2    
    63   30   32 1    
    64   32   33 1    
    65   32   34 1    
    66   32  100 1    
    67   33  101 1    
    68   33  102 1    
    69   33  103 1    
    70   34   35 am   BACKBONE|DICT|INTERRES
    71   34  104 1    
    72   35   36 2    
    73   37   38 2    
    74   37   39 am   BACKBONE|DICT|INTERRES
    75   39   40 1    
    76   39  105 1    
    77   40   41 1    
    78   40   42 1    
    79   40  106 1    
    80   41  107 1    
    81   41  108 1    
    82   41  109 1    
    83   42   43 2    
    84   42   44 am   BACKBONE|DICT|INTERRES
    85   44   45 1    
    86   44  110 1    
    87   45   46 1    
    88   45   47 1    
    89   45  111 1    
    90   46  112 1    
    91   46  113 1    
    92   46  114 1    
    93   47   48 2    
    94   47   49 am   BACKBONE|DICT|INTERRES
    95   49   50 1    
    96   49  115 1    
    97   50   51 1    
    98   50   52 1    
    99   50  116 1    
   100   51  117 1    
   101   51  118 1    
   102   51  119 1    
   103   52   53 2    
   104   52   54 am   BACKBONE|DICT|INTERRES
   105   54   55 1    
   106   54  120 1    
   107   55   56 1    
   108   55   57 1    
   109   55  121 1    
   110   56  122 1    
   111   56  123 1    
   112   56  124 1    
   113   57   58 2    
   114   57   59 am   BACKBONE|DICT|INTERRES
   115   59   60 1    
   116   59  125 1    
   117   60   61 1    
   118   60   62 1    
   119   60  126 1    
   120   61  127 1    
   121   61  128 1    
   122   61  129 1    
   123   62   63 2    
   124   62   64 am   BACKBONE|DICT|INTERRES
   125   64   65 1    
   126   64  130 1    
   127   65   66 1    
   128   65   69 1    
   129   65  131 1    
   130   66   67 am   BACKBONE|DICT|INTERRES
   131   66   68 2    
   132   67  132 1    
   133   67  133 1    
   134   69   70 1    
   135   69  134 1    
   136   69  135 1    
   137   70   71 1    
   138   71  136 1    
   139   71  137 1    
@<TRIPOS>SUBSTRUCTURE
     1 UNK         1 GROUP             0       ****    0 ROOT    
