@<TRIPOS>MOLECULE
3R137
137   139    1
SMALL
USER_CHARGES


@<TRIPOS>ATOM
      1 CA         24.7903   -5.9894   -1.6930 C.3       0 UNK        -0.2020 
      2 C          25.4217   -4.6157   -1.8515 C.2       0 UNK         0.4855 
      3 O          25.3385   -4.0315   -2.9319 O.2       0 UNK        -0.5197 
      4 N          26.0325   -4.0903   -0.7791 N.am      1 UNK        -0.4892 
      5 CA         26.7568   -2.8097   -0.7141 C.3       1 UNK         0.0835 
      6 C6         28.1146   -2.8435   -1.4520 C.3       12 UNK        -0.0855 
      7 S7         29.2955   -4.0572   -0.7767 S.3       12 UNK        -0.2931 
      8 C8         30.3021   -4.4452   -2.2566 C.3       12 UNK         0.0378 
      9 C9         30.7964   -3.2292   -3.0459 C.ar      12 UNK        -0.0802 
     10 C10        30.9466   -3.3338   -4.4328 C.ar      12 UNK        -0.0944 
     11 C11        31.3682   -2.2370   -5.1897 C.ar      12 UNK        -0.0787 
     12 C12        31.6324   -1.0224   -4.5541 C.ar      12 UNK        -0.0862 
     13 C13        31.4561   -0.8900   -3.1762 C.ar      12 UNK        -0.0733 
     14 C14        31.0851   -2.0074   -2.4234 C.ar      12 UNK        -0.0832 
     15 C15        31.6235    0.4664   -2.5019 C.3       12 UNK         0.0240 
     16 S16        30.5147    1.7528   -3.1858 S.3       12 UNK        -0.2522 
     17 C17        28.8649    0.9586   -3.1952 C.3       12 UNK        -0.0967 
     18 CA         28.3302    0.7612   -4.6408 C.3       5 UNK         0.0660 
     19 N          27.5769   -0.4880   -4.8045 N.am      5 UNK        -0.4015 
     20 C          27.3432   -1.0466   -6.0031 C.2       4 UNK         0.4946 
     21 O          27.7065   -0.5535   -7.0725 O.2       4 UNK        -0.5353 
     22 CA         26.5346   -2.3509   -6.0308 C.3       4 UNK         0.0277 
     23 CB         27.4210   -3.5599   -5.6932 C.3       4 UNK        -0.1981 
     24 N          25.3472   -2.3366   -5.1724 N.am      4 UNK        -0.4209 
     25 C          24.2850   -1.5428   -5.3724 C.2       3 UNK         0.4942 
     26 O          24.2634   -0.6267   -6.1920 O.2       3 UNK        -0.5208 
     27 CA         23.0380   -1.8138   -4.5227 C.3       3 UNK         0.0250 
     28 CB         22.4669   -3.2180   -4.7887 C.3       3 UNK        -0.1990 
     29 N          23.3493   -1.6630   -3.1059 N.am      3 UNK        -0.4232 
     30 C          23.1749   -0.5316   -2.4095 C.2       2 UNK         0.4993 
     31 O          22.6405    0.4788   -2.8661 O.2       2 UNK        -0.5286 
     32 CA         23.6741   -0.5083   -0.9527 C.3       2 UNK         0.0209 
     33 CB         22.4920   -0.6371    0.0224 C.3       2 UNK        -0.1931 
     34 N          24.6677   -1.5390   -0.6366 N.am      2 UNK        -0.4546 
     35 C          25.8921   -1.6154   -1.1758 C.2       1 UNK         0.5154 
     36 O          26.3119   -0.8292   -2.0307 O.2       1 UNK        -0.5181 
     37 C          27.5330    1.9847   -5.1439 C.2       5 UNK         0.5014 
     38 O          28.1358    2.9516   -5.6096 O.2       5 UNK        -0.5248 
     39 N          26.1950    1.9184   -5.0703 N.am      6 UNK        -0.4434 
     40 CA         25.2960    2.9303   -5.6260 C.3       6 UNK         0.0363 
     41 CB         23.8979    2.7796   -5.0067 C.3       6 UNK        -0.1936 
     42 C          25.2241    2.8602   -7.1608 C.2       6 UNK         0.5081 
     43 O          25.2096    3.9065   -7.8096 O.2       6 UNK        -0.5248 
     44 N          25.1715    1.6383   -7.7104 N.am      7 UNK        -0.4718 
     45 CA         25.0916    1.3695   -9.1463 C.3       7 UNK         0.0273 
     46 CB         24.7437   -0.1100   -9.3817 C.3       7 UNK        -0.1935 
     47 C          26.3686    1.7577   -9.9059 C.2       7 UNK         0.5018 
     48 O          26.2769    2.4906  -10.8923 O.2       7 UNK        -0.5186 
     49 N          27.5265    1.2637   -9.4487 N.am      8 UNK        -0.4240 
     50 CA         28.8217    1.4919  -10.0861 C.3       8 UNK         0.0235 
     51 CB         28.9419    0.6681  -11.3871 C.3       8 UNK        -0.2000 
     52 C          29.9297    1.1422   -9.0912 C.2       8 UNK         0.4941 
     53 O          30.3632   -0.0088   -9.0505 O.2       8 UNK        -0.5273 
     54 N          30.3671    2.1387   -8.3079 N.am      9 UNK        -0.4262 
     55 CA         31.3988    2.0023   -7.2727 C.3       9 UNK         0.0264 
     56 CB         31.5550    3.3326   -6.5186 C.3       9 UNK        -0.1955 
     57 C          32.7701    1.5309   -7.7888 C.2       9 UNK         0.5031 
     58 O          33.4822    0.8351   -7.0646 O.2       9 UNK        -0.5390 
     59 N          33.1170    1.8990   -9.0288 N.am      10 UNK        -0.4204 
     60 CA         34.3734    1.5528   -9.6984 C.3       10 UNK         0.0237 
     61 CB         34.6743    2.6222  -10.7664 C.3       10 UNK        -0.1985 
     62 C          34.3664    0.1207  -10.2753 C.2       10 UNK         0.4970 
     63 O          34.7077   -0.0689  -11.4444 O.2       10 UNK        -0.4914 
     64 N          33.9786   -0.8628   -9.4546 N.am      11 UNK        -0.4285 
     65 CA         33.9707   -2.2926   -9.8033 C.3       11 UNK         0.1007 
     66 C          35.3665   -2.9833   -9.7685 C.2       11 UNK         0.5703 
     67 N          36.4171   -2.3420   -9.2691 N.am      11 UNK        -0.7361 
     68 O          35.5019   -4.1175  -10.2219 O.2       11 UNK        -0.4986 
     69 C69        32.8980   -3.0801   -9.0054 C.3       12 UNK        -0.0947 
     70 S70        33.1084   -3.0172   -7.1916 S.3       12 UNK        -0.2240 
     71 C71        31.4940   -2.3473   -6.6986 C.3       12 UNK         0.0194 
     72 H72        23.7219   -5.9363   -1.9001 H         1 UNK         0.0906 
     73 H73        25.2394   -6.6888   -2.3976 H         1 UNK         0.0906 
     74 H74        24.9233   -6.3877   -0.6874 H         1 UNK         0.0906 
     75 H75        26.0538   -4.6295    0.0758 H         1 UNK         0.3140 
     76 H76        26.9654   -2.6255    0.3413 H         1 UNK         0.1085 
     77 H77        27.9629   -3.0344   -2.5132 H         1 UNK         0.0836 
     78 H78        28.5918   -1.8668   -1.3771 H         1 UNK         0.0836 
     79 H79        29.7033   -5.0870   -2.9051 H         1 UNK         0.0731 
     80 H80        31.1649   -5.0368   -1.9483 H         1 UNK         0.0731 
     81 H81        30.7289   -4.2695   -4.9297 H         1 UNK         0.1312 
     82 H82        31.9486   -0.1679   -5.1327 H         1 UNK         0.1406 
     83 H83        30.9773   -1.9111   -1.3521 H         1 UNK         0.1631 
     84 H84        32.6573    0.7952   -2.6152 H         1 UNK         0.0717 
     85 H85        31.4410    0.3901   -1.4289 H         1 UNK         0.0717 
     86 H86        28.9425    0.0000   -2.6853 H         1 UNK         0.0934 
     87 H87        28.1763    1.5467   -2.5851 H         1 UNK         0.0934 
     88 H88        29.1927    0.6673   -5.3030 H         1 UNK         0.0739 
     89 H89        27.1906   -0.9050   -3.9646 H         1 UNK         0.3093 
     90 H90        26.1820   -2.4834   -7.0561 H         1 UNK         0.0818 
     91 H91        27.8048   -3.5128   -4.6762 H         1 UNK         0.0819 
     92 H92        26.8725   -4.4959   -5.7992 H         1 UNK         0.0819 
     93 H93        28.2810   -3.6101   -6.3622 H         1 UNK         0.0819 
     94 H94        25.3106   -3.0315   -4.4268 H         1 UNK         0.3041 
     95 H95        22.2740   -1.0899   -4.8157 H         1 UNK         0.0784 
     96 H96        22.2434   -3.3520   -5.8479 H         1 UNK         0.0793 
     97 H97        23.1581   -4.0098   -4.4992 H         1 UNK         0.0793 
     98 H98        21.5375   -3.3733   -4.2406 H         1 UNK         0.0793 
     99 H99        23.8499   -2.4277   -2.6706 H         1 UNK         0.3024 
    100 H100       24.1452    0.4652   -0.7975 H         1 UNK         0.1171 
    101 H101       22.8161   -0.5272    1.0575 H         1 UNK         0.0786 
    102 H102       21.7454    0.1364   -0.1639 H         1 UNK         0.0786 
    103 H103       21.9923   -1.6018   -0.0745 H         1 UNK         0.0786 
    104 H104       24.3943   -2.2457    0.0316 H         1 UNK         0.2977 
    105 H105       25.7689    1.0812   -4.6997 H         1 UNK         0.3127 
    106 H106       25.6785    3.9168   -5.3545 H         1 UNK         0.0770 
    107 H107       23.4526    1.8112   -5.2376 H         1 UNK         0.0814 
    108 H108       23.2205    3.5466   -5.3841 H         1 UNK         0.0814 
    109 H109       23.9301    2.8813   -3.9218 H         1 UNK         0.0814 
    110 H110       25.1096    0.8290   -7.0977 H         1 UNK         0.2983 
    111 H111       24.2753    1.9725   -9.5501 H         1 UNK         0.0947 
    112 H112       24.6883   -0.3351  -10.4476 H         1 UNK         0.0806 
    113 H113       23.7763   -0.3620   -8.9469 H         1 UNK         0.0806 
    114 H114       25.4885   -0.7757   -8.9440 H         1 UNK         0.0806 
    115 H115       27.5334    0.6713   -8.6190 H         1 UNK         0.3000 
    116 H116       28.9134    2.5504  -10.3399 H         1 UNK         0.0850 
    117 H117       29.9379    0.7665  -11.8207 H         1 UNK         0.0810 
    118 H118       28.2293    1.0006  -12.1417 H         1 UNK         0.0810 
    119 H119       28.7672   -0.3937  -11.2082 H         1 UNK         0.0810 
    120 H120       29.9279    3.0452   -8.3862 H         1 UNK         0.3040 
    121 H121       31.0395    1.2524   -6.5695 H         1 UNK         0.0766 
    122 H122       30.6204    3.6412   -6.0520 H         1 UNK         0.0812 
    123 H123       31.8839    4.1368   -7.1777 H         1 UNK         0.0812 
    124 H124       32.2927    3.2419   -5.7198 H         1 UNK         0.0812 
    125 H125       32.4529    2.4382   -9.5647 H         1 UNK         0.3205 
    126 H126       35.1799    1.5898   -8.9629 H         1 UNK         0.0754 
    127 H127       35.6374    2.4390  -11.2451 H         1 UNK         0.0769 
    128 H128       34.7204    3.6192  -10.3279 H         1 UNK         0.0769 
    129 H129       33.9164    2.6346  -11.5509 H         1 UNK         0.0769 
    130 H130       33.7278   -0.6275   -8.5003 H         1 UNK         0.2981 
    131 H131       33.6632   -2.3573  -10.8488 H         1 UNK         0.0541 
    132 H132       36.3161   -1.4161   -8.8869 H         1 UNK         0.3459 
    133 H133       37.3154   -2.7987   -9.2597 H         1 UNK         0.3459 
    134 H134       31.9121   -2.6911   -9.2656 H         1 UNK         0.0612 
    135 H135       32.8832   -4.1277   -9.3109 H         1 UNK         0.0612 
    136 H136       31.3651   -1.3656   -7.1521 H         1 UNK         0.0624 
    137 H137       30.6976   -2.9798   -7.0934 H         1 UNK         0.0624 
@<TRIPOS>BOND
     1    1    2 1    
     2    1   72 1    
     3    1   73 1    
     4    1   74 1    
     5    2    3 2    
     6    2    4 am   BACKBONE|DICT|INTERRES
     7    4    5 1    
     8    4   75 1    
     9    5    6 1    
    10    5   35 1    
    11    5   76 1    
    12    6    7 1    
    13    6   77 1    
    14    6   78 1    
    15    7    8 1    
    16    8    9 1    
    17    8   79 1    
    18    8   80 1    
    19    9   10 ar   
    20    9   14 ar   
    21   10   11 ar   
    22   10   81 1    
    23   11   12 ar   
    24   11   71 1    
    25   12   13 ar   
    26   12   82 1    
    27   13   14 ar   
    28   13   15 1    
    29   14   83 1    
    30   15   16 1    
    31   15   84 1    
    32   15   85 1    
    33   16   17 1    
    34   17   18 1    
    35   17   86 1    
    36   17   87 1    
    37   18   19 1    
    38   18   37 1    
    39   18   88 1    
    40   19   20 am   BACKBONE|DICT|INTERRES
    41   19   89 1    
    42   20   21 2    
    43   20   22 1    
    44   22   23 1    
    45   22   24 1    
    46   22   90 1    
    47   23   91 1    
    48   23   92 1    
    49   23   93 1    
    50   24   25 am   BACKBONE|DICT|INTERRES
    51   24   94 1    
    52   25   26 2    
    53   25   27 1    
    54   27   28 1    
    55   27   29 1    
    56   27   95 1    
    57   28   96 1    
    58   28   97 1    
    59   28   98 1    
    60   29   30 am   BACKBONE|DICT|INTERRES
    61   29   99 1    
    62   30   31 2    
    63   30   32 1    
    64   32   33 1    
    65   32   34 1    
    66   32  100 1    
    67   33  101 1    
    68   33  102 1    
    69   33  103 1    
    70   34   35 am   BACKBONE|DICT|INTERRES
    71   34  104 1    
    72   35   36 2    
    73   37   38 2    
    74   37   39 am   BACKBONE|DICT|INTERRES
    75   39   40 1    
    76   39  105 1    
    77   40   41 1    
    78   40   42 1    
    79   40  106 1    
    80   41  107 1    
    81   41  108 1    
    82   41  109 1    
    83   42   43 2    
    84   42   44 am   BACKBONE|DICT|INTERRES
    85   44   45 1    
    86   44  110 1    
    87   45   46 1    
    88   45   47 1    
    89   45  111 1    
    90   46  112 1    
    91   46  113 1    
    92   46  114 1    
    93   47   48 2    
    94   47   49 am   BACKBONE|DICT|INTERRES
    95   49   50 1    
    96   49  115 1    
    97   50   51 1    
    98   50   52 1    
    99   50  116 1    
   100   51  117 1    
   101   51  118 1    
   102   51  119 1    
   103   52   53 2    
   104   52   54 am   BACKBONE|DICT|INTERRES
   105   54   55 1    
   106   54  120 1    
   107   55   56 1    
   108   55   57 1    
   109   55  121 1    
   110   56  122 1    
   111   56  123 1    
   112   56  124 1    
   113   57   58 2    
   114   57   59 am   BACKBONE|DICT|INTERRES
   115   59   60 1    
   116   59  125 1    
   117   60   61 1    
   118   60   62 1    
   119   60  126 1    
   120   61  127 1    
   121   61  128 1    
   122   61  129 1    
   123   62   63 2    
   124   62   64 am   BACKBONE|DICT|INTERRES
   125   64   65 1    
   126   64  130 1    
   127   65   66 1    
   128   65   69 1    
   129   65  131 1    
   130   66   67 am   BACKBONE|DICT|INTERRES
   131   66   68 2    
   132   67  132 1    
   133   67  133 1    
   134   69   70 1    
   135   69  134 1    
   136   69  135 1    
   137   70   71 1    
   138   71  136 1    
   139   71  137 1    
@<TRIPOS>SUBSTRUCTURE
     1 UNK         1 GROUP             0       ****    0 ROOT    
