@<TRIPOS>MOLECULE
3R137
137   139    1
SMALL
USER_CHARGES


@<TRIPOS>ATOM
      1 CA         27.9848   -5.7786    2.4357 C.3       0 UNK        -0.2020 
      2 C          27.7554   -5.2565    1.0250 C.2       0 UNK         0.4855 
      3 O          26.8080   -5.6854    0.3655 O.2       0 UNK        -0.5197 
      4 N          28.6173   -4.3381    0.5662 N.am      1 UNK        -0.4892 
      5 CA         28.5816   -3.6793   -0.7472 C.3       1 UNK         0.0835 
      6 C6         28.8374   -4.6485   -1.9396 C.3       12 UNK        -0.0855 
      7 S7         30.4009   -5.5963   -1.8374 S.3       12 UNK        -0.2931 
      8 C8         31.7145   -4.3228   -1.8492 C.3       12 UNK         0.0378 
      9 C9         31.4386   -3.1743   -2.8109 C.ar      12 UNK        -0.0802 
     10 C10        31.3636   -1.8643   -2.3290 C.ar      12 UNK        -0.0944 
     11 C11        31.0342   -0.8061   -3.1790 C.ar      12 UNK        -0.0787 
     12 C12        30.7654   -1.0763   -4.5262 C.ar      12 UNK        -0.0862 
     13 C13        30.8838   -2.3749   -5.0316 C.ar      12 UNK        -0.0733 
     14 C14        31.2332   -3.4185   -4.1716 C.ar      12 UNK        -0.0832 
     15 C15        30.6383   -2.6498   -6.5076 C.3       12 UNK         0.0240 
     16 S16        29.1579   -3.6755   -6.8048 S.3       12 UNK        -0.2522 
     17 C17        27.8185   -2.7089   -6.0293 C.3       12 UNK        -0.0967 
     18 CA         27.1410   -1.7140   -7.0054 C.3       5 UNK         0.0660 
     19 N          25.7563   -1.4258   -6.6256 N.am      5 UNK        -0.4015 
     20 C          24.8646   -0.8016   -7.4105 C.2       4 UNK         0.4946 
     21 O          25.0970   -0.4534   -8.5672 O.2       4 UNK        -0.5353 
     22 CA         23.4992   -0.4619   -6.7876 C.3       4 UNK         0.0277 
     23 CB         22.5347   -1.6510   -6.9196 C.3       4 UNK        -0.1981 
     24 N          23.6016   -0.0643   -5.3817 N.am      4 UNK        -0.4209 
     25 C          24.2533    1.0245   -4.9463 C.2       3 UNK         0.4942 
     26 O          24.7507    1.8634   -5.6953 O.2       3 UNK        -0.5208 
     27 CA         24.4312    1.1726   -3.4239 C.3       3 UNK         0.0250 
     28 CB         23.3040    2.0328   -2.8317 C.3       3 UNK        -0.1990 
     29 N          24.4956   -0.1114   -2.7144 N.am      3 UNK        -0.4232 
     30 C          25.4367   -1.0460   -2.9100 C.2       2 UNK         0.4993 
     31 O          26.3709   -0.9214   -3.7072 O.2       2 UNK        -0.5286 
     32 CA         25.2257   -2.3785   -2.1773 C.3       2 UNK         0.0209 
     33 CB         24.3231   -3.2990   -3.0169 C.3       2 UNK        -0.1931 
     34 N          26.4894   -3.0707   -1.9260 N.am      2 UNK        -0.4546 
     35 C          27.3025   -2.8195   -0.8913 C.2       1 UNK         0.5154 
     36 O          27.0706   -1.9518   -0.0455 O.2       1 UNK        -0.5181 
     37 C          27.9437   -0.4080   -7.1315 C.2       5 UNK         0.5014 
     38 O          28.6310   -0.2134   -8.1349 O.2       5 UNK        -0.5248 
     39 N          27.8050    0.4815   -6.1363 N.am      6 UNK        -0.4434 
     40 CA         28.4153    1.8148   -6.1198 C.3       6 UNK         0.0363 
     41 CB         28.0889    2.5156   -4.7921 C.3       6 UNK        -0.1936 
     42 C          27.9976    2.6926   -7.3143 C.2       6 UNK         0.5081 
     43 O          28.8261    3.4414   -7.8305 O.2       6 UNK        -0.5248 
     44 N          26.7356    2.5695   -7.7435 N.am      7 UNK        -0.4718 
     45 CA         26.1998    3.2277   -8.9320 C.3       7 UNK         0.0273 
     46 CB         24.6631    3.2286   -8.8690 C.3       7 UNK        -0.1935 
     47 C          26.6974    2.5902  -10.2412 C.2       7 UNK         0.5018 
     48 O          27.1960    3.3117  -11.1061 O.2       7 UNK        -0.5186 
     49 N          26.5138    1.2697  -10.3880 N.am      8 UNK        -0.4240 
     50 CA         26.7261    0.5589  -11.6517 C.3       8 UNK         0.0235 
     51 CB         25.8703   -0.7187  -11.6763 C.3       8 UNK        -0.2000 
     52 C          28.1946    0.2182  -11.9436 C.2       8 UNK         0.4941 
     53 O          28.6410    0.4238  -13.0734 O.2       8 UNK        -0.5273 
     54 N          28.9010   -0.3375  -10.9518 N.am      9 UNK        -0.4262 
     55 CA         30.2518   -0.8877  -11.1065 C.3       9 UNK         0.0264 
     56 CB         30.2942   -2.2874  -10.4711 C.3       9 UNK        -0.1955 
     57 C          31.3348    0.0092  -10.4894 C.2       9 UNK         0.5031 
     58 O          32.4640   -0.0105  -10.9819 O.2       9 UNK        -0.5390 
     59 N          30.9683    0.7655   -9.4442 N.am      10 UNK        -0.4204 
     60 CA         31.8026    1.6105   -8.5806 C.3       10 UNK         0.0237 
     61 CB         32.6905    2.5891   -9.3771 C.3       10 UNK        -0.1985 
     62 C          32.6146    0.7898   -7.5647 C.2       10 UNK         0.4970 
     63 O          32.9396   -0.3753   -7.8023 O.2       10 UNK        -0.4914 
     64 N          32.8948    1.4220   -6.4219 N.am      11 UNK        -0.4285 
     65 CA         33.5783    0.8158   -5.2714 C.3       11 UNK         0.1007 
     66 C          35.1078    0.6717   -5.4896 C.2       11 UNK         0.5703 
     67 N          35.7381   -0.2935   -4.8339 N.am      11 UNK        -0.7361 
     68 O          35.7335    1.4450   -6.2133 O.2       11 UNK        -0.4986 
     69 C69        33.2641    1.5750   -3.9523 C.3       12 UNK        -0.0947 
     70 S70        31.4858    1.9332   -3.7236 S.3       12 UNK        -0.2240 
     71 C71        30.9383    0.6044   -2.6001 C.3       12 UNK         0.0194 
     72 H72        28.1365   -6.8575    2.4156 H         1 UNK         0.0906 
     73 H73        28.8571   -5.3231    2.9042 H         1 UNK         0.0906 
     74 H74        27.1163   -5.5681    3.0594 H         1 UNK         0.0906 
     75 H75        29.3535   -4.0173    1.1795 H         1 UNK         0.3140 
     76 H76        29.3941   -2.9547   -0.7320 H         1 UNK         0.1085 
     77 H77        28.0300   -5.3787   -2.0163 H         1 UNK         0.0836 
     78 H78        28.8354   -4.1038   -2.8852 H         1 UNK         0.0836 
     79 H79        31.8394   -3.9510   -0.8310 H         1 UNK         0.0731 
     80 H80        32.6608   -4.7939   -2.1182 H         1 UNK         0.0731 
     81 H81        31.5422   -1.6684   -1.2803 H         1 UNK         0.1312 
     82 H82        30.4885   -0.2709   -5.1902 H         1 UNK         0.1406 
     83 H83        31.3030   -4.4284   -4.5533 H         1 UNK         0.1631 
     84 H84        30.5554   -1.7174   -7.0653 H         1 UNK         0.0717 
     85 H85        31.5074   -3.1634   -6.9208 H         1 UNK         0.0717 
     86 H86        27.0847   -3.4412   -5.6894 H         1 UNK         0.0934 
     87 H87        28.1714   -2.2208   -5.1196 H         1 UNK         0.0934 
     88 H88        27.1042   -2.1740   -7.9958 H         1 UNK         0.0739 
     89 H89        25.5179   -1.5966   -5.6587 H         1 UNK         0.3093 
     90 H90        23.0835    0.3808   -7.3443 H         1 UNK         0.0818 
     91 H91        21.5383   -1.3958   -6.5584 H         1 UNK         0.0819 
     92 H92        22.4307   -1.9529   -7.9629 H         1 UNK         0.0819 
     93 H93        22.8823   -2.5216   -6.3618 H         1 UNK         0.0819 
     94 H94        23.1956   -0.6851   -4.6976 H         1 UNK         0.3041 
     95 H95        25.3788    1.6880   -3.2553 H         1 UNK         0.0784 
     96 H96        23.2529    3.0030   -3.3284 H         1 UNK         0.0793 
     97 H97        22.3287    1.5575   -2.9445 H         1 UNK         0.0793 
     98 H98        23.4653    2.2235   -1.7705 H         1 UNK         0.0793 
     99 H99        23.7537   -0.2963   -2.0538 H         1 UNK         0.3024 
    100 H100       24.7354   -2.1818   -1.2207 H         1 UNK         0.1171 
    101 H101       24.1431   -4.2461   -2.5073 H         1 UNK         0.0786 
    102 H102       23.3482   -2.8431   -3.1947 H         1 UNK         0.0786 
    103 H103       24.7623   -3.5227   -3.9901 H         1 UNK         0.0786 
    104 H104       26.7542   -3.7801   -2.5922 H         1 UNK         0.2977 
    105 H105       27.2339    0.2258   -5.3380 H         1 UNK         0.3127 
    106 H106       29.4961    1.6764   -6.1748 H         1 UNK         0.0770 
    107 H107       27.0339    2.7775   -4.7190 H         1 UNK         0.0814 
    108 H108       28.6581    3.4409   -4.6956 H         1 UNK         0.0814 
    109 H109       28.3393    1.8896   -3.9361 H         1 UNK         0.0814 
    110 H110       26.0929    2.0021   -7.1998 H         1 UNK         0.2983 
    111 H111       26.5338    4.2678   -8.9242 H         1 UNK         0.0947 
    112 H112       24.2364    3.7284   -9.7396 H         1 UNK         0.0806 
    113 H113       24.3050    3.7553   -7.9841 H         1 UNK         0.0806 
    114 H114       24.2559    2.2175   -8.8397 H         1 UNK         0.0806 
    115 H115       26.0825    0.7384   -9.6337 H         1 UNK         0.3000 
    116 H116       26.3739    1.1994  -12.4637 H         1 UNK         0.0850 
    117 H117       25.9717   -1.2392  -12.6296 H         1 UNK         0.0810 
    118 H118       24.8128   -0.4899  -11.5423 H         1 UNK         0.0810 
    119 H119       26.1618   -1.4171  -10.8908 H         1 UNK         0.0810 
    120 H120       28.4885   -0.4061  -10.0252 H         1 UNK         0.3040 
    121 H121       30.4930   -1.0010  -12.1657 H         1 UNK         0.0766 
    122 H122       29.5970   -2.9664  -10.9620 H         1 UNK         0.0812 
    123 H123       30.0398   -2.2567   -9.4122 H         1 UNK         0.0812 
    124 H124       31.2893   -2.7264  -10.5550 H         1 UNK         0.0812 
    125 H125       30.0290    0.6053   -9.0875 H         1 UNK         0.3205 
    126 H126       31.0952    2.2102   -8.0096 H         1 UNK         0.0754 
    127 H127       33.1411    3.3301   -8.7159 H         1 UNK         0.0769 
    128 H128       32.1117    3.1318  -10.1245 H         1 UNK         0.0769 
    129 H129       33.5085    2.0794   -9.8866 H         1 UNK         0.0769 
    130 H130       32.6236    2.3869   -6.3074 H         1 UNK         0.2981 
    131 H131       33.1916   -0.1979   -5.1674 H         1 UNK         0.0541 
    132 H132       35.2377   -0.9266   -4.2297 H         1 UNK         0.3459 
    133 H133       36.7342   -0.3949   -4.9508 H         1 UNK         0.3459 
    134 H134       33.7901    2.5312   -3.9328 H         1 UNK         0.0612 
    135 H135       33.6281    1.0113   -3.0915 H         1 UNK         0.0612 
    136 H136       29.8996    0.7904   -2.3252 H         1 UNK         0.0624 
    137 H137       31.5186    0.6793   -1.6791 H         1 UNK         0.0624 
@<TRIPOS>BOND
     1    1    2 1    
     2    1   72 1    
     3    1   73 1    
     4    1   74 1    
     5    2    3 2    
     6    2    4 am   BACKBONE|DICT|INTERRES
     7    4    5 1    
     8    4   75 1    
     9    5    6 1    
    10    5   35 1    
    11    5   76 1    
    12    6    7 1    
    13    6   77 1    
    14    6   78 1    
    15    7    8 1    
    16    8    9 1    
    17    8   79 1    
    18    8   80 1    
    19    9   10 ar   
    20    9   14 ar   
    21   10   11 ar   
    22   10   81 1    
    23   11   12 ar   
    24   11   71 1    
    25   12   13 ar   
    26   12   82 1    
    27   13   14 ar   
    28   13   15 1    
    29   14   83 1    
    30   15   16 1    
    31   15   84 1    
    32   15   85 1    
    33   16   17 1    
    34   17   18 1    
    35   17   86 1    
    36   17   87 1    
    37   18   19 1    
    38   18   37 1    
    39   18   88 1    
    40   19   20 am   BACKBONE|DICT|INTERRES
    41   19   89 1    
    42   20   21 2    
    43   20   22 1    
    44   22   23 1    
    45   22   24 1    
    46   22   90 1    
    47   23   91 1    
    48   23   92 1    
    49   23   93 1    
    50   24   25 am   BACKBONE|DICT|INTERRES
    51   24   94 1    
    52   25   26 2    
    53   25   27 1    
    54   27   28 1    
    55   27   29 1    
    56   27   95 1    
    57   28   96 1    
    58   28   97 1    
    59   28   98 1    
    60   29   30 am   BACKBONE|DICT|INTERRES
    61   29   99 1    
    62   30   31 2    
    63   30   32 1    
    64   32   33 1    
    65   32   34 1    
    66   32  100 1    
    67   33  101 1    
    68   33  102 1    
    69   33  103 1    
    70   34   35 am   BACKBONE|DICT|INTERRES
    71   34  104 1    
    72   35   36 2    
    73   37   38 2    
    74   37   39 am   BACKBONE|DICT|INTERRES
    75   39   40 1    
    76   39  105 1    
    77   40   41 1    
    78   40   42 1    
    79   40  106 1    
    80   41  107 1    
    81   41  108 1    
    82   41  109 1    
    83   42   43 2    
    84   42   44 am   BACKBONE|DICT|INTERRES
    85   44   45 1    
    86   44  110 1    
    87   45   46 1    
    88   45   47 1    
    89   45  111 1    
    90   46  112 1    
    91   46  113 1    
    92   46  114 1    
    93   47   48 2    
    94   47   49 am   BACKBONE|DICT|INTERRES
    95   49   50 1    
    96   49  115 1    
    97   50   51 1    
    98   50   52 1    
    99   50  116 1    
   100   51  117 1    
   101   51  118 1    
   102   51  119 1    
   103   52   53 2    
   104   52   54 am   BACKBONE|DICT|INTERRES
   105   54   55 1    
   106   54  120 1    
   107   55   56 1    
   108   55   57 1    
   109   55  121 1    
   110   56  122 1    
   111   56  123 1    
   112   56  124 1    
   113   57   58 2    
   114   57   59 am   BACKBONE|DICT|INTERRES
   115   59   60 1    
   116   59  125 1    
   117   60   61 1    
   118   60   62 1    
   119   60  126 1    
   120   61  127 1    
   121   61  128 1    
   122   61  129 1    
   123   62   63 2    
   124   62   64 am   BACKBONE|DICT|INTERRES
   125   64   65 1    
   126   64  130 1    
   127   65   66 1    
   128   65   69 1    
   129   65  131 1    
   130   66   67 am   BACKBONE|DICT|INTERRES
   131   66   68 2    
   132   67  132 1    
   133   67  133 1    
   134   69   70 1    
   135   69  134 1    
   136   69  135 1    
   137   70   71 1    
   138   71  136 1    
   139   71  137 1    
@<TRIPOS>SUBSTRUCTURE
     1 UNK         1 GROUP             0       ****    0 ROOT    
