@<TRIPOS>MOLECULE
3R137
137   139    1
SMALL
USER_CHARGES


@<TRIPOS>ATOM
      1 CA         26.9343   -6.4977   -4.7047 C.3       0 UNK        -0.2020 
      2 C          26.8024   -5.5768   -3.5016 C.2       0 UNK         0.4855 
      3 O          25.6861   -5.2944   -3.0641 O.2       0 UNK        -0.5197 
      4 N          27.9370   -5.1019   -2.9702 N.am      1 UNK        -0.4892 
      5 CA         28.0404   -4.1699   -1.8408 C.3       1 UNK         0.0835 
      6 C6         29.5275   -3.9390   -1.4721 C.3       12 UNK        -0.0855 
      7 S7         29.7565   -3.1813    0.1744 S.3       12 UNK        -0.2931 
      8 C8         31.4419   -2.4836    0.0385 C.3       12 UNK         0.0378 
      9 C9         31.5571   -1.4863   -1.1066 C.ar      12 UNK        -0.0802 
     10 C10        32.4054   -1.7392   -2.1884 C.ar      12 UNK        -0.0944 
     11 C11        32.4210   -0.8820   -3.2939 C.ar      12 UNK        -0.0787 
     12 C12        31.5862    0.2397   -3.3087 C.ar      12 UNK        -0.0862 
     13 C13        30.7468    0.5110   -2.2242 C.ar      12 UNK        -0.0733 
     14 C14        30.7608   -0.3402   -1.1151 C.ar      12 UNK        -0.0832 
     15 C15        29.7735    1.6793   -2.2683 C.3       12 UNK         0.0240 
     16 S16        28.0714    1.0667   -2.0714 S.3       12 UNK        -0.2522 
     17 C17        27.1185    2.0474   -3.2641 C.3       12 UNK        -0.0967 
     18 CA         27.3892    1.7184   -4.7566 C.3       5 UNK         0.0660 
     19 N          27.4996    0.2833   -5.0703 N.am      5 UNK        -0.4015 
     20 C          27.8025   -0.2126   -6.2840 C.2       4 UNK         0.4946 
     21 O          28.0752    0.4853   -7.2604 O.2       4 UNK        -0.5353 
     22 CA         27.7450   -1.7327   -6.4756 C.3       4 UNK         0.0277 
     23 CB         29.0580   -2.3984   -6.0334 C.3       4 UNK        -0.1981 
     24 N          26.5980   -2.3010   -5.7684 N.am      4 UNK        -0.4209 
     25 C          25.3348   -2.2066   -6.2160 C.2       3 UNK         0.4942 
     26 O          25.0377   -1.7501   -7.3198 O.2       3 UNK        -0.5208 
     27 CA         24.2030   -2.6574   -5.2753 C.3       3 UNK         0.0250 
     28 CB         23.7436   -4.0835   -5.6153 C.3       3 UNK        -0.1990 
     29 N          24.5653   -2.5727   -3.8585 N.am      3 UNK        -0.4232 
     30 C          24.7371   -1.4148   -3.2017 C.2       2 UNK         0.4993 
     31 O          24.5615   -0.3089   -3.7167 O.2       2 UNK        -0.5286 
     32 CA         25.2436   -1.4981   -1.7489 C.3       2 UNK         0.0209 
     33 CB         24.0589   -1.5708   -0.7731 C.3       2 UNK        -0.1931 
     34 N          26.1574   -2.6196   -1.4924 N.am      2 UNK        -0.4546 
     35 C          27.2954   -2.8553   -2.1628 C.2       1 UNK         0.5154 
     36 O          27.7071   -2.1323   -3.0712 O.2       1 UNK        -0.5181 
     37 C          26.3196    2.4088   -5.6218 C.2       5 UNK         0.5014 
     38 O          26.5912    3.4651   -6.1932 O.2       5 UNK        -0.5248 
     39 N          25.1464    1.7685   -5.7435 N.am      6 UNK        -0.4434 
     40 CA         24.0280    2.1985   -6.5908 C.3       6 UNK         0.0363 
     41 CB         22.8405    1.2481   -6.3713 C.3       6 UNK        -0.1936 
     42 C          24.3710    2.2883   -8.0915 C.2       6 UNK         0.5081 
     43 O          23.7301    3.0537   -8.8113 O.2       6 UNK        -0.5248 
     44 N          25.3866    1.5332   -8.5277 N.am      7 UNK        -0.4718 
     45 CA         25.9455    1.5459   -9.8794 C.3       7 UNK         0.0273 
     46 CB         26.2491    0.0936  -10.2844 C.3       7 UNK        -0.1935 
     47 C          27.1891    2.4546   -9.9963 C.2       7 UNK         0.5018 
     48 O          27.9263    2.3317  -10.9745 O.2       7 UNK        -0.5186 
     49 N          27.3961    3.3513   -9.0183 N.am      8 UNK        -0.4240 
     50 CA         28.4975    4.3149   -8.8940 C.3       8 UNK         0.0235 
     51 CB         28.5530    5.2834  -10.0963 C.3       8 UNK        -0.2000 
     52 C          29.8468    3.6413   -8.5808 C.2       8 UNK         0.4941 
     53 O          30.8630    3.9774   -9.1916 O.2       8 UNK        -0.5273 
     54 N          29.8196    2.7178   -7.6088 N.am      9 UNK        -0.4262 
     55 CA         30.9363    1.9246   -7.0798 C.3       9 UNK         0.0264 
     56 CB         32.0014    2.8226   -6.4146 C.3       9 UNK        -0.1955 
     57 C          31.5149    0.9619   -8.1308 C.2       9 UNK         0.5031 
     58 O          32.7338    0.8862   -8.3015 O.2       9 UNK        -0.5390 
     59 N          30.6258    0.2261   -8.8119 N.am      10 UNK        -0.4204 
     60 CA         30.9421   -0.7027   -9.9051 C.3       10 UNK         0.0237 
     61 CB         29.6835   -0.9117  -10.7657 C.3       10 UNK        -0.1985 
     62 C          31.5525   -2.0407   -9.4333 C.2       10 UNK         0.4970 
     63 O          31.1225   -3.1047   -9.8836 O.2       10 UNK        -0.4914 
     64 N          32.5405   -1.9716   -8.5375 N.am      11 UNK        -0.4285 
     65 CA         33.3271   -3.1175   -8.0649 C.3       11 UNK         0.1007 
     66 C          34.4046   -3.5438   -9.0981 C.2       11 UNK         0.5703 
     67 N          34.7888   -4.8138   -9.1021 N.am      11 UNK        -0.7361 
     68 O          34.9189   -2.7350   -9.8701 O.2       11 UNK        -0.4986 
     69 C69        33.9593   -2.8365   -6.6795 C.3       12 UNK        -0.0947 
     70 S70        32.6840   -2.6360   -5.3942 S.3       12 UNK        -0.2240 
     71 C71        33.3137   -1.1955   -4.4840 C.3       12 UNK         0.0194 
     72 H72        26.2250   -7.3207   -4.6292 H         1 UNK         0.0906 
     73 H73        26.7266   -5.9506   -5.6230 H         1 UNK         0.0906 
     74 H74        27.9342   -6.9230   -4.7802 H         1 UNK         0.0906 
     75 H75        28.8159   -5.3573   -3.3972 H         1 UNK         0.3140 
     76 H76        27.5508   -4.6492   -0.9903 H         1 UNK         0.1085 
     77 H77        30.0154   -3.3399   -2.2428 H         1 UNK         0.0836 
     78 H78        30.0601   -4.8913   -1.4552 H         1 UNK         0.0836 
     79 H79        32.1547   -3.3007   -0.0834 H         1 UNK         0.0731 
     80 H80        31.6987   -1.9860    0.9746 H         1 UNK         0.0731 
     81 H81        33.0247   -2.6259   -2.1939 H         1 UNK         0.1312 
     82 H82        31.5757    0.8892   -4.1713 H         1 UNK         0.1406 
     83 H83        30.0924   -0.1503   -0.2859 H         1 UNK         0.1631 
     84 H84        29.8732    2.2304   -3.2038 H         1 UNK         0.0717 
     85 H85        30.0021    2.3803   -1.4646 H         1 UNK         0.0717 
     86 H86        27.3056    3.1056   -3.0699 H         1 UNK         0.0934 
     87 H87        26.0678    1.8827   -3.0157 H         1 UNK         0.0934 
     88 H88        28.3498    2.1624   -5.0223 H         1 UNK         0.0739 
     89 H89        27.3499   -0.3609   -4.3012 H         1 UNK         0.3093 
     90 H90        27.6222   -1.9309   -7.5428 H         1 UNK         0.0818 
     91 H91        29.8814   -2.0795   -6.6736 H         1 UNK         0.0819 
     92 H92        29.3356   -2.1399   -5.0115 H         1 UNK         0.0819 
     93 H93        28.9993   -3.4845   -6.1019 H         1 UNK         0.0819 
     94 H94        26.7675   -2.6109   -4.8180 H         1 UNK         0.3041 
     95 H95        23.3571   -1.9870   -5.4421 H         1 UNK         0.0784 
     96 H96        23.3979   -4.1436   -6.6483 H         1 UNK         0.0793 
     97 H97        24.5484   -4.8083   -5.5012 H         1 UNK         0.0793 
     98 H98        22.9165   -4.3974   -4.9784 H         1 UNK         0.0793 
     99 H99        24.7733   -3.4460   -3.3833 H         1 UNK         0.3024 
    100 H100       25.7910   -0.5770   -1.5471 H         1 UNK         0.1171 
    101 H101       24.3942   -1.5223    0.2631 H         1 UNK         0.0786 
    102 H102       23.3739   -0.7359   -0.9289 H         1 UNK         0.0786 
    103 H103       23.4864   -2.4906   -0.8999 H         1 UNK         0.0786 
    104 H104       25.8632   -3.2864   -0.7931 H         1 UNK         0.2977 
    105 H105       24.9958    0.9319   -5.1839 H         1 UNK         0.3127 
    106 H106       23.7350    3.1981   -6.2636 H         1 UNK         0.0770 
    107 H107       23.0785    0.2309   -6.6844 H         1 UNK         0.0814 
    108 H108       21.9704    1.5707   -6.9447 H         1 UNK         0.0814 
    109 H109       22.5443    1.2156   -5.3225 H         1 UNK         0.0814 
    110 H110       25.8694    0.9444   -7.8609 H         1 UNK         0.2983 
    111 H111       25.2069    1.9402  -10.5806 H         1 UNK         0.0947 
    112 H112       26.9603   -0.3674   -9.6004 H         1 UNK         0.0806 
    113 H113       26.6660    0.0355  -11.2905 H         1 UNK         0.0806 
    114 H114       25.3441   -0.5142  -10.2751 H         1 UNK         0.0806 
    115 H115       26.7573    3.3394   -8.2296 H         1 UNK         0.3000 
    116 H116       28.2606    4.9167   -8.0150 H         1 UNK         0.0850 
    117 H117       29.2702    6.0848   -9.9153 H         1 UNK         0.0810 
    118 H118       27.5846    5.7504  -10.2755 H         1 UNK         0.0810 
    119 H119       28.8596    4.7803  -11.0137 H         1 UNK         0.0810 
    120 H120       28.9067    2.4378   -7.2698 H         1 UNK         0.3040 
    121 H121       30.5164    1.2918   -6.2975 H         1 UNK         0.0766 
    122 H122       31.5615    3.4561   -5.6446 H         1 UNK         0.0812 
    123 H123       32.4982    3.4690   -7.1386 H         1 UNK         0.0812 
    124 H124       32.7765    2.2220   -5.9372 H         1 UNK         0.0812 
    125 H125       29.6473    0.3220   -8.5569 H         1 UNK         0.3205 
    126 H126       31.6935   -0.2270  -10.5394 H         1 UNK         0.0754 
    127 H127       29.9103   -1.4998  -11.6561 H         1 UNK         0.0769 
    128 H128       29.2729    0.0375  -11.1079 H         1 UNK         0.0769 
    129 H129       28.9075   -1.4435  -10.2147 H         1 UNK         0.0769 
    130 H130       32.8648   -1.0494   -8.2638 H         1 UNK         0.2981 
    131 H131       32.6451   -3.9630   -7.9501 H         1 UNK         0.0541 
    132 H132       34.3833   -5.4844   -8.4672 H         1 UNK         0.3459 
    133 H133       35.4966   -5.1089   -9.7565 H         1 UNK         0.3459 
    134 H134       34.6036   -3.6619   -6.3711 H         1 UNK         0.0612 
    135 H135       34.5933   -1.9488   -6.7212 H         1 UNK         0.0612 
    136 H136       33.3762   -0.3413   -5.1604 H         1 UNK         0.0624 
    137 H137       34.3276   -1.3991   -4.1363 H         1 UNK         0.0624 
@<TRIPOS>BOND
     1    1    2 1    
     2    1   72 1    
     3    1   73 1    
     4    1   74 1    
     5    2    3 2    
     6    2    4 am   BACKBONE|DICT|INTERRES
     7    4    5 1    
     8    4   75 1    
     9    5    6 1    
    10    5   35 1    
    11    5   76 1    
    12    6    7 1    
    13    6   77 1    
    14    6   78 1    
    15    7    8 1    
    16    8    9 1    
    17    8   79 1    
    18    8   80 1    
    19    9   10 ar   
    20    9   14 ar   
    21   10   11 ar   
    22   10   81 1    
    23   11   12 ar   
    24   11   71 1    
    25   12   13 ar   
    26   12   82 1    
    27   13   14 ar   
    28   13   15 1    
    29   14   83 1    
    30   15   16 1    
    31   15   84 1    
    32   15   85 1    
    33   16   17 1    
    34   17   18 1    
    35   17   86 1    
    36   17   87 1    
    37   18   19 1    
    38   18   37 1    
    39   18   88 1    
    40   19   20 am   BACKBONE|DICT|INTERRES
    41   19   89 1    
    42   20   21 2    
    43   20   22 1    
    44   22   23 1    
    45   22   24 1    
    46   22   90 1    
    47   23   91 1    
    48   23   92 1    
    49   23   93 1    
    50   24   25 am   BACKBONE|DICT|INTERRES
    51   24   94 1    
    52   25   26 2    
    53   25   27 1    
    54   27   28 1    
    55   27   29 1    
    56   27   95 1    
    57   28   96 1    
    58   28   97 1    
    59   28   98 1    
    60   29   30 am   BACKBONE|DICT|INTERRES
    61   29   99 1    
    62   30   31 2    
    63   30   32 1    
    64   32   33 1    
    65   32   34 1    
    66   32  100 1    
    67   33  101 1    
    68   33  102 1    
    69   33  103 1    
    70   34   35 am   BACKBONE|DICT|INTERRES
    71   34  104 1    
    72   35   36 2    
    73   37   38 2    
    74   37   39 am   BACKBONE|DICT|INTERRES
    75   39   40 1    
    76   39  105 1    
    77   40   41 1    
    78   40   42 1    
    79   40  106 1    
    80   41  107 1    
    81   41  108 1    
    82   41  109 1    
    83   42   43 2    
    84   42   44 am   BACKBONE|DICT|INTERRES
    85   44   45 1    
    86   44  110 1    
    87   45   46 1    
    88   45   47 1    
    89   45  111 1    
    90   46  112 1    
    91   46  113 1    
    92   46  114 1    
    93   47   48 2    
    94   47   49 am   BACKBONE|DICT|INTERRES
    95   49   50 1    
    96   49  115 1    
    97   50   51 1    
    98   50   52 1    
    99   50  116 1    
   100   51  117 1    
   101   51  118 1    
   102   51  119 1    
   103   52   53 2    
   104   52   54 am   BACKBONE|DICT|INTERRES
   105   54   55 1    
   106   54  120 1    
   107   55   56 1    
   108   55   57 1    
   109   55  121 1    
   110   56  122 1    
   111   56  123 1    
   112   56  124 1    
   113   57   58 2    
   114   57   59 am   BACKBONE|DICT|INTERRES
   115   59   60 1    
   116   59  125 1    
   117   60   61 1    
   118   60   62 1    
   119   60  126 1    
   120   61  127 1    
   121   61  128 1    
   122   61  129 1    
   123   62   63 2    
   124   62   64 am   BACKBONE|DICT|INTERRES
   125   64   65 1    
   126   64  130 1    
   127   65   66 1    
   128   65   69 1    
   129   65  131 1    
   130   66   67 am   BACKBONE|DICT|INTERRES
   131   66   68 2    
   132   67  132 1    
   133   67  133 1    
   134   69   70 1    
   135   69  134 1    
   136   69  135 1    
   137   70   71 1    
   138   71  136 1    
   139   71  137 1    
@<TRIPOS>SUBSTRUCTURE
     1 UNK         1 GROUP             0       ****    0 ROOT    
