@<TRIPOS>MOLECULE
3R137
137   139    1
SMALL
USER_CHARGES


@<TRIPOS>ATOM
      1 CA         23.4091   -4.8781   -2.5151 C.3       0 UNK        -0.2020 
      2 C          24.1681   -3.6845   -1.9572 C.2       0 UNK         0.4855 
      3 O          23.5549   -2.7882   -1.3767 O.2       0 UNK        -0.5197 
      4 N          25.4971   -3.6566   -2.1303 N.am      1 UNK        -0.4892 
      5 CA         26.3785   -2.5735   -1.6804 C.3       1 UNK         0.0835 
      6 C6         27.8674   -2.9290   -1.8930 C.3       12 UNK        -0.0855 
      7 S7         28.9854   -1.9356   -0.8441 S.3       12 UNK        -0.2931 
      8 C8         30.5967   -2.7414   -1.1351 C.3       12 UNK         0.0378 
      9 C9         31.0035   -2.7047   -2.6024 C.ar      12 UNK        -0.0802 
     10 C10        31.7446   -1.6359   -3.1179 C.ar      12 UNK        -0.0944 
     11 C11        32.0904   -1.6040   -4.4739 C.ar      12 UNK        -0.0787 
     12 C12        31.6782   -2.6405   -5.3176 C.ar      12 UNK        -0.0862 
     13 C13        30.9448   -3.7149   -4.8086 C.ar      12 UNK        -0.0733 
     14 C14        30.6310   -3.7508   -3.4492 C.ar      12 UNK        -0.0832 
     15 C15        30.4841   -4.8478   -5.7083 C.3       12 UNK         0.0240 
     16 S16        28.6958   -4.7385   -6.0327 S.3       12 UNK        -0.2522 
     17 C17        28.6391   -3.6808   -7.5198 C.3       12 UNK        -0.0967 
     18 CA         27.8255   -2.3708   -7.3672 C.3       5 UNK         0.0660 
     19 N          26.5222   -2.5958   -6.7395 N.am      5 UNK        -0.4015 
     20 C          25.4838   -1.7530   -6.7658 C.2       4 UNK         0.4946 
     21 O          25.5667   -0.5927   -7.1709 O.2       4 UNK        -0.5353 
     22 CA         24.1222   -2.3028   -6.3129 C.3       4 UNK         0.0277 
     23 CB         24.1268   -3.8025   -5.9432 C.3       4 UNK        -0.1981 
     24 N          23.6055   -1.5221   -5.1916 N.am      4 UNK        -0.4209 
     25 C          22.3082   -1.2388   -4.9972 C.2       3 UNK         0.4942 
     26 O          21.4220   -1.5622   -5.7899 O.2       3 UNK        -0.5208 
     27 CA         21.8983   -0.5034   -3.7051 C.3       3 UNK         0.0250 
     28 CB         20.8663   -1.3243   -2.9111 C.3       3 UNK        -0.1990 
     29 N          23.0403   -0.2104   -2.8371 N.am      3 UNK        -0.4232 
     30 C          23.7335    0.9363   -2.8646 C.2       2 UNK         0.4993 
     31 O          23.3971    1.9140   -3.5304 O.2       2 UNK        -0.5286 
     32 CA         25.0238    1.0228   -2.0273 C.3       2 UNK         0.0209 
     33 CB         24.8146    1.9291   -0.8032 C.3       2 UNK        -0.1931 
     34 N          25.5445   -0.2720   -1.5763 N.am      2 UNK        -0.4546 
     35 C          26.0001   -1.2484   -2.3724 C.2       1 UNK         0.5154 
     36 O          26.0729   -1.1573   -3.6022 O.2       1 UNK        -0.5181 
     37 C          28.6561   -1.1901   -6.8175 C.2       5 UNK         0.5014 
     38 O          29.5493   -0.7281   -7.5339 O.2       5 UNK        -0.5248 
     39 N          28.3414   -0.6705   -5.6200 N.am      6 UNK        -0.4434 
     40 CA         28.9515    0.5662   -5.1184 C.3       6 UNK         0.0363 
     41 CB         28.8955    0.6206   -3.5887 C.3       6 UNK        -0.1936 
     42 C          28.3066    1.8222   -5.7264 C.2       6 UNK         0.5081 
     43 O          29.0028    2.8224   -5.8894 O.2       6 UNK        -0.5248 
     44 N          27.0172    1.7540   -6.0941 N.am      7 UNK        -0.4718 
     45 CA         26.3239    2.8185   -6.8312 C.3       7 UNK         0.0273 
     46 CB         24.8036    2.6882   -6.6634 C.3       7 UNK        -0.1935 
     47 C          26.7115    2.8233   -8.3170 C.2       7 UNK         0.5018 
     48 O          26.8023    3.8957   -8.9148 O.2       7 UNK        -0.5186 
     49 N          26.9922    1.6326   -8.8687 N.am      8 UNK        -0.4240 
     50 CA         27.6238    1.4569  -10.1821 C.3       8 UNK         0.0235 
     51 CB         27.4803   -0.0070  -10.6273 C.3       8 UNK        -0.2000 
     52 C          29.1098    1.8731  -10.1967 C.2       8 UNK         0.4941 
     53 O          29.6660    2.0596  -11.2788 O.2       8 UNK        -0.5273 
     54 N          29.7124    2.0046   -9.0048 N.am      9 UNK        -0.4262 
     55 CA         31.0955    2.3888   -8.7199 C.3       9 UNK         0.0264 
     56 CB         31.3618    3.8455   -9.1529 C.3       9 UNK        -0.1955 
     57 C          32.1184    1.3898   -9.2851 C.2       9 UNK         0.5031 
     58 O          33.1328    1.8007   -9.8524 O.2       9 UNK        -0.5390 
     59 N          31.8607    0.0879   -9.0971 N.am      10 UNK        -0.4204 
     60 CA         32.7300   -1.0102   -9.5375 C.3       10 UNK         0.0237 
     61 CB         31.8787   -2.2807   -9.7052 C.3       10 UNK        -0.1985 
     62 C          33.9359   -1.2233   -8.5955 C.2       10 UNK         0.4970 
     63 O          34.1896   -2.3499   -8.1663 O.2       10 UNK        -0.4914 
     64 N          34.6434   -0.1337   -8.2848 N.am      11 UNK        -0.4285 
     65 CA         35.8192   -0.0600   -7.4118 C.3       11 UNK         0.1007 
     66 C          36.8849    0.8709   -8.0443 C.2       11 UNK         0.5703 
     67 N          38.1587    0.6510   -7.7353 N.am      11 UNK        -0.7361 
     68 O          36.5724    1.8053   -8.7861 O.2       11 UNK        -0.4986 
     69 C69        35.4421    0.4174   -5.9813 C.3       12 UNK        -0.0947 
     70 S70        34.6889   -0.9064   -4.9837 S.3       12 UNK        -0.2240 
     71 C71        32.9266   -0.4643   -5.0313 C.3       12 UNK         0.0194 
     72 H72        22.9204   -5.4209   -1.7066 H         1 UNK         0.0906 
     73 H73        22.6409   -4.5413   -3.2105 H         1 UNK         0.0906 
     74 H74        24.0648   -5.5711   -3.0418 H         1 UNK         0.0906 
     75 H75        25.9479   -4.4115   -2.6270 H         1 UNK         0.3140 
     76 H76        26.2088   -2.4684   -0.6062 H         1 UNK         0.1085 
     77 H77        28.0382   -3.9774   -1.6431 H         1 UNK         0.0836 
     78 H78        28.1430   -2.8143   -2.9431 H         1 UNK         0.0836 
     79 H79        30.5539   -3.7721   -0.7795 H         1 UNK         0.0731 
     80 H80        31.3546   -2.2433   -0.5286 H         1 UNK         0.0731 
     81 H81        32.0508   -0.8300   -2.4651 H         1 UNK         0.1312 
     82 H82        31.9407   -2.6130   -6.3660 H         1 UNK         0.1406 
     83 H83        30.0650   -4.5849   -3.0572 H         1 UNK         0.1631 
     84 H84        30.6908   -5.7996   -5.2169 H         1 UNK         0.0717 
     85 H85        31.0449   -4.8654   -6.6441 H         1 UNK         0.0717 
     86 H86        28.1867   -4.2832   -8.3093 H         1 UNK         0.0934 
     87 H87        29.6474   -3.4744   -7.8743 H         1 UNK         0.0934 
     88 H88        27.5845   -2.0642   -8.3853 H         1 UNK         0.0739 
     89 H89        26.3869   -3.5176   -6.3508 H         1 UNK         0.3093 
     90 H90        23.4642   -2.1736   -7.1746 H         1 UNK         0.0818 
     91 H91        24.4658   -4.4187   -6.7771 H         1 UNK         0.0819 
     92 H92        24.7684   -4.0090   -5.0867 H         1 UNK         0.0819 
     93 H93        23.1227   -4.1443   -5.6926 H         1 UNK         0.0819 
     94 H94        24.3034   -1.1909   -4.5325 H         1 UNK         0.3041 
     95 H95        21.4162    0.4282   -4.0082 H         1 UNK         0.0784 
     96 H96        19.9573   -1.4790   -3.4938 H         1 UNK         0.0793 
     97 H97        21.2497   -2.3087   -2.6429 H         1 UNK         0.0793 
     98 H98        20.5762   -0.8153   -1.9919 H         1 UNK         0.0793 
     99 H99        23.3592   -0.9709   -2.2432 H         1 UNK         0.3024 
    100 H100       25.7751    1.4855   -2.6695 H         1 UNK         0.1171 
    101 H101       25.7450    2.0769   -0.2545 H         1 UNK         0.0786 
    102 H102       24.4587    2.9160   -1.1029 H         1 UNK         0.0786 
    103 H103       24.0784    1.5130   -0.1143 H         1 UNK         0.0786 
    104 H104       25.4962   -0.4467   -0.5825 H         1 UNK         0.2977 
    105 H105       27.5831   -1.0689   -5.0757 H         1 UNK         0.3127 
    106 H106       30.0074    0.5689   -5.3980 H         1 UNK         0.0770 
    107 H107       27.8835    0.7707   -3.2223 H         1 UNK         0.0814 
    108 H108       29.5012    1.4437   -3.2081 H         1 UNK         0.0814 
    109 H109       29.2832   -0.2963   -3.1524 H         1 UNK         0.0814 
    110 H110       26.5190    0.8764   -5.9960 H         1 UNK         0.2983 
    111 H111       26.6227    3.7827   -6.4138 H         1 UNK         0.0947 
    112 H112       24.2805    3.4563   -7.2338 H         1 UNK         0.0806 
    113 H113       24.5175    2.8164   -5.6227 H         1 UNK         0.0806 
    114 H114       24.4297    1.7229   -7.0009 H         1 UNK         0.0806 
    115 H115       26.8059    0.7999   -8.3215 H         1 UNK         0.3000 
    116 H116       27.0941    2.0886  -10.8984 H         1 UNK         0.0850 
    117 H117       27.7546   -0.1169  -11.6763 H         1 UNK         0.0810 
    118 H118       26.4572   -0.3653  -10.5201 H         1 UNK         0.0810 
    119 H119       28.1360   -0.6647  -10.0592 H         1 UNK         0.0810 
    120 H120       29.1556    1.7954   -8.1891 H         1 UNK         0.3040 
    121 H121       31.2035    2.3462   -7.6354 H         1 UNK         0.0766 
    122 H122       31.3191    3.9610  -10.2359 H         1 UNK         0.0812 
    123 H123       30.6341    4.5276   -8.7131 H         1 UNK         0.0812 
    124 H124       32.3501    4.1743   -8.8301 H         1 UNK         0.0812 
    125 H125       31.0205   -0.1743   -8.5830 H         1 UNK         0.3205 
    126 H126       33.1352   -0.7575  -10.5195 H         1 UNK         0.0754 
    127 H127       32.4631   -3.0883  -10.1477 H         1 UNK         0.0769 
    128 H128       31.0206   -2.1059  -10.3547 H         1 UNK         0.0769 
    129 H129       31.5096   -2.6345   -8.7449 H         1 UNK         0.0769 
    130 H130       34.4015    0.7373   -8.7502 H         1 UNK         0.2981 
    131 H131       36.2732   -1.0511   -7.3491 H         1 UNK         0.0541 
    132 H132       38.8666    1.2523   -8.1272 H         1 UNK         0.3459 
    133 H133       38.4273   -0.1028   -7.1177 H         1 UNK         0.3459 
    134 H134       34.7810    1.2852   -6.0181 H         1 UNK         0.0612 
    135 H135       36.3302    0.7401   -5.4346 H         1 UNK         0.0612 
    136 H136       32.7629    0.4493   -4.4579 H         1 UNK         0.0624 
    137 H137       32.6238   -0.2483   -6.0567 H         1 UNK         0.0624 
@<TRIPOS>BOND
     1    1    2 1    
     2    1   72 1    
     3    1   73 1    
     4    1   74 1    
     5    2    3 2    
     6    2    4 am   BACKBONE|DICT|INTERRES
     7    4    5 1    
     8    4   75 1    
     9    5    6 1    
    10    5   35 1    
    11    5   76 1    
    12    6    7 1    
    13    6   77 1    
    14    6   78 1    
    15    7    8 1    
    16    8    9 1    
    17    8   79 1    
    18    8   80 1    
    19    9   10 ar   
    20    9   14 ar   
    21   10   11 ar   
    22   10   81 1    
    23   11   12 ar   
    24   11   71 1    
    25   12   13 ar   
    26   12   82 1    
    27   13   14 ar   
    28   13   15 1    
    29   14   83 1    
    30   15   16 1    
    31   15   84 1    
    32   15   85 1    
    33   16   17 1    
    34   17   18 1    
    35   17   86 1    
    36   17   87 1    
    37   18   19 1    
    38   18   37 1    
    39   18   88 1    
    40   19   20 am   BACKBONE|DICT|INTERRES
    41   19   89 1    
    42   20   21 2    
    43   20   22 1    
    44   22   23 1    
    45   22   24 1    
    46   22   90 1    
    47   23   91 1    
    48   23   92 1    
    49   23   93 1    
    50   24   25 am   BACKBONE|DICT|INTERRES
    51   24   94 1    
    52   25   26 2    
    53   25   27 1    
    54   27   28 1    
    55   27   29 1    
    56   27   95 1    
    57   28   96 1    
    58   28   97 1    
    59   28   98 1    
    60   29   30 am   BACKBONE|DICT|INTERRES
    61   29   99 1    
    62   30   31 2    
    63   30   32 1    
    64   32   33 1    
    65   32   34 1    
    66   32  100 1    
    67   33  101 1    
    68   33  102 1    
    69   33  103 1    
    70   34   35 am   BACKBONE|DICT|INTERRES
    71   34  104 1    
    72   35   36 2    
    73   37   38 2    
    74   37   39 am   BACKBONE|DICT|INTERRES
    75   39   40 1    
    76   39  105 1    
    77   40   41 1    
    78   40   42 1    
    79   40  106 1    
    80   41  107 1    
    81   41  108 1    
    82   41  109 1    
    83   42   43 2    
    84   42   44 am   BACKBONE|DICT|INTERRES
    85   44   45 1    
    86   44  110 1    
    87   45   46 1    
    88   45   47 1    
    89   45  111 1    
    90   46  112 1    
    91   46  113 1    
    92   46  114 1    
    93   47   48 2    
    94   47   49 am   BACKBONE|DICT|INTERRES
    95   49   50 1    
    96   49  115 1    
    97   50   51 1    
    98   50   52 1    
    99   50  116 1    
   100   51  117 1    
   101   51  118 1    
   102   51  119 1    
   103   52   53 2    
   104   52   54 am   BACKBONE|DICT|INTERRES
   105   54   55 1    
   106   54  120 1    
   107   55   56 1    
   108   55   57 1    
   109   55  121 1    
   110   56  122 1    
   111   56  123 1    
   112   56  124 1    
   113   57   58 2    
   114   57   59 am   BACKBONE|DICT|INTERRES
   115   59   60 1    
   116   59  125 1    
   117   60   61 1    
   118   60   62 1    
   119   60  126 1    
   120   61  127 1    
   121   61  128 1    
   122   61  129 1    
   123   62   63 2    
   124   62   64 am   BACKBONE|DICT|INTERRES
   125   64   65 1    
   126   64  130 1    
   127   65   66 1    
   128   65   69 1    
   129   65  131 1    
   130   66   67 am   BACKBONE|DICT|INTERRES
   131   66   68 2    
   132   67  132 1    
   133   67  133 1    
   134   69   70 1    
   135   69  134 1    
   136   69  135 1    
   137   70   71 1    
   138   71  136 1    
   139   71  137 1    
@<TRIPOS>SUBSTRUCTURE
     1 UNK         1 GROUP             0       ****    0 ROOT    
