@<TRIPOS>MOLECULE
3R137
137   139    1
SMALL
USER_CHARGES


@<TRIPOS>ATOM
      1 CA         22.9315   -5.3427   -2.4410 C.3       0 UNK        -0.2020 
      2 C          24.1722   -5.0921   -1.5967 C.2       0 UNK         0.4855 
      3 O          24.1844   -5.4209   -0.4103 O.2       0 UNK        -0.5197 
      4 N          25.2135   -4.5105   -2.1976 N.am      1 UNK        -0.4892 
      5 CA         26.4737   -4.1414   -1.5588 C.3       1 UNK         0.0835 
      6 C6         27.4476   -5.3458   -1.4794 C.3       12 UNK        -0.0855 
      7 S7         28.8909   -5.0554   -0.3941 S.3       12 UNK        -0.2931 
      8 C8         30.2691   -5.7218   -1.3848 C.3       12 UNK         0.0378 
      9 C9         30.6366   -4.8306   -2.5652 C.ar      12 UNK        -0.0802 
     10 C10        31.5429   -3.7759   -2.4040 C.ar      12 UNK        -0.0944 
     11 C11        31.9183   -2.9893   -3.4993 C.ar      12 UNK        -0.0787 
     12 C12        31.3645   -3.2497   -4.7563 C.ar      12 UNK        -0.0862 
     13 C13        30.4470   -4.2887   -4.9245 C.ar      12 UNK        -0.0733 
     14 C14        30.1016   -5.0861   -3.8313 C.ar      12 UNK        -0.0832 
     15 C15        29.8209   -4.5518   -6.2839 C.3       12 UNK         0.0240 
     16 S16        28.1586   -3.8219   -6.3863 S.3       12 UNK        -0.2522 
     17 C17        28.5670   -2.0480   -6.4819 C.3       12 UNK        -0.0967 
     18 CA         27.3595   -1.2215   -6.9736 C.3       5 UNK         0.0660 
     19 N          26.2614   -1.2106   -6.0006 N.am      5 UNK        -0.4015 
     20 C          25.0350   -0.7188   -6.2333 C.2       4 UNK         0.4946 
     21 O          24.6902   -0.2068   -7.2989 O.2       4 UNK        -0.5353 
     22 CA         24.0382   -0.7748   -5.0677 C.3       4 UNK         0.0277 
     23 CB         23.4783   -2.1955   -4.8846 C.3       4 UNK        -0.1981 
     24 N          24.6691   -0.3167   -3.8294 N.am      4 UNK        -0.4209 
     25 C          24.8020    0.9746   -3.4924 C.2       3 UNK         0.4942 
     26 O          24.3131    1.9032   -4.1363 O.2       3 UNK        -0.5208 
     27 CA         25.6237    1.2979   -2.2309 C.3       3 UNK         0.0250 
     28 CB         24.6995    1.4442   -1.0114 C.3       3 UNK        -0.1990 
     29 N          26.6674    0.3142   -1.9303 N.am      3 UNK        -0.4232 
     30 C          27.7355    0.0690   -2.7028 C.2       2 UNK         0.4993 
     31 O          27.9592    0.6418   -3.7672 O.2       2 UNK        -0.5286 
     32 CA         28.6807   -1.0469   -2.2318 C.3       2 UNK         0.0209 
     33 CB         29.6441   -0.5126   -1.1595 C.3       2 UNK        -0.1931 
     34 N          27.9908   -2.2278   -1.7051 N.am      2 UNK        -0.4546 
     35 C          27.0397   -2.9338   -2.3293 C.2       1 UNK         0.5154 
     36 O          26.5816   -2.6391   -3.4398 O.2       1 UNK        -0.5181 
     37 C          27.7910    0.1904   -7.4173 C.2       5 UNK         0.5014 
     38 O          28.1758    0.3513   -8.5736 O.2       5 UNK        -0.5248 
     39 N          27.6590    1.1966   -6.5391 N.am      6 UNK        -0.4434 
     40 CA         27.8933    2.6218   -6.8088 C.3       6 UNK         0.0363 
     41 CB         27.5666    3.4340   -5.5453 C.3       6 UNK        -0.1936 
     42 C          27.1392    3.2036   -8.0226 C.2       6 UNK         0.5081 
     43 O          27.5855    4.2101   -8.5732 O.2       6 UNK        -0.5248 
     44 N          26.0319    2.5695   -8.4337 N.am      7 UNK        -0.4718 
     45 CA         25.2796    2.9157   -9.6417 C.3       7 UNK         0.0273 
     46 CB         23.8618    2.3321   -9.5251 C.3       7 UNK        -0.1935 
     47 C          25.9489    2.4451  -10.9504 C.2       7 UNK         0.5018 
     48 O          25.5202    2.8839  -12.0192 O.2       7 UNK        -0.5186 
     49 N          26.9528    1.5611  -10.8675 N.am      8 UNK        -0.4240 
     50 CA         27.6505    0.9705  -12.0066 C.3       8 UNK         0.0235 
     51 CB         26.9648   -0.3560  -12.3992 C.3       8 UNK        -0.2000 
     52 C          29.1411    0.8368  -11.6622 C.2       8 UNK         0.4941 
     53 O          29.8503    1.8453  -11.6627 O.2       8 UNK        -0.5273 
     54 N          29.5998   -0.3898  -11.3764 N.am      9 UNK        -0.4262 
     55 CA         30.9720   -0.7295  -10.9893 C.3       9 UNK         0.0264 
     56 CB         31.1840   -2.2412  -11.1965 C.3       9 UNK        -0.1955 
     57 C          31.2881   -0.2846   -9.5472 C.2       9 UNK         0.5031 
     58 O          31.4224   -1.1256   -8.6553 O.2       9 UNK        -0.5390 
     59 N          31.3672    1.0370   -9.3508 N.am      10 UNK        -0.4204 
     60 CA         31.6042    1.7083   -8.0726 C.3       10 UNK         0.0237 
     61 CB         31.5080    3.2282   -8.2869 C.3       10 UNK        -0.1985 
     62 C          32.9477    1.3387   -7.4212 C.2       10 UNK         0.4970 
     63 O          33.9134    1.0204   -8.1194 O.2       10 UNK        -0.4914 
     64 N          32.9745    1.4184   -6.0869 N.am      11 UNK        -0.4285 
     65 CA         34.1024    1.0191   -5.2296 C.3       11 UNK         0.1007 
     66 C          35.3556    1.9400   -5.3029 C.2       11 UNK         0.5703 
     67 N          35.2812    3.1228   -5.9018 N.am      11 UNK        -0.7361 
     68 O          36.4180    1.5693   -4.8090 O.2       11 UNK        -0.4986 
     69 C69        33.6531    0.8168   -3.7562 C.3       12 UNK        -0.0947 
     70 S70        32.1769   -0.2432   -3.5978 S.3       12 UNK        -0.2240 
     71 C71        32.9392   -1.8723   -3.3453 C.3       12 UNK         0.0194 
     72 H72        22.0935   -4.7606   -2.0585 H         1 UNK         0.0906 
     73 H73        23.0859   -5.0708   -3.4850 H         1 UNK         0.0906 
     74 H74        22.6591   -6.3972   -2.4041 H         1 UNK         0.0906 
     75 H75        25.1575   -4.2066   -3.1623 H         1 UNK         0.3140 
     76 H76        26.2513   -3.7985   -0.5454 H         1 UNK         0.1085 
     77 H77        27.7604   -5.6444   -2.4784 H         1 UNK         0.0836 
     78 H78        26.9237   -6.2116   -1.0713 H         1 UNK         0.0836 
     79 H79        31.1382   -5.8377   -0.7355 H         1 UNK         0.0731 
     80 H80        30.0167   -6.7267   -1.7275 H         1 UNK         0.0731 
     81 H81        31.9670   -3.5796   -1.4288 H         1 UNK         0.1312 
     82 H82        31.6435   -2.6352   -5.6022 H         1 UNK         0.1406 
     83 H83        29.4105   -5.9050   -3.9739 H         1 UNK         0.1631 
     84 H84        29.7462   -5.6272   -6.4521 H         1 UNK         0.0717 
     85 H85        30.4483   -4.1598   -7.0863 H         1 UNK         0.0717 
     86 H86        28.9069   -1.6992   -5.5053 H         1 UNK         0.0934 
     87 H87        29.4121   -1.9347   -7.1631 H         1 UNK         0.0934 
     88 H88        26.9716   -1.7053   -7.8729 H         1 UNK         0.0739 
     89 H89        26.4525   -1.6518   -5.1050 H         1 UNK         0.3093 
     90 H90        23.2009   -0.1152   -5.3069 H         1 UNK         0.0818 
     91 H91        22.7837   -2.2441   -4.0458 H         1 UNK         0.0819 
     92 H92        22.9331   -2.5117   -5.7749 H         1 UNK         0.0819 
     93 H93        24.2658   -2.9286   -4.7135 H         1 UNK         0.0819 
     94 H94        25.1509   -1.0158   -3.2789 H         1 UNK         0.3041 
     95 H95        26.1163    2.2573   -2.4042 H         1 UNK         0.0784 
     96 H96        23.9266    2.1920   -1.1953 H         1 UNK         0.0793 
     97 H97        24.1953    0.5072   -0.7710 H         1 UNK         0.0793 
     98 H98        25.2534    1.7652   -0.1289 H         1 UNK         0.0793 
     99 H99        26.5661   -0.2139   -1.0758 H         1 UNK         0.3024 
    100 H100       29.2663   -1.3673   -3.0962 H         1 UNK         0.1171 
    101 H101       29.1275   -0.2775   -0.2283 H         1 UNK         0.0786 
    102 H102       30.1376    0.4006   -1.4948 H         1 UNK         0.0786 
    103 H103       30.4271   -1.2378   -0.9369 H         1 UNK         0.0786 
    104 H104       28.3281   -2.5818   -0.8201 H         1 UNK         0.2977 
    105 H105       27.4428    0.9589   -5.5735 H         1 UNK         0.3127 
    106 H106       28.9561    2.7386   -7.0149 H         1 UNK         0.0770 
    107 H107       26.5287    3.2989   -5.2390 H         1 UNK         0.0814 
    108 H108       27.7227    4.5008   -5.7116 H         1 UNK         0.0814 
    109 H109       28.2043    3.1445   -4.7102 H         1 UNK         0.0814 
    110 H110       25.7308    1.7402   -7.9346 H         1 UNK         0.2983 
    111 H111       25.1953    4.0034   -9.6965 H         1 UNK         0.0947 
    112 H112       23.2466    2.6242  -10.3772 H         1 UNK         0.0806 
    113 H113       23.3578    2.6864   -8.6257 H         1 UNK         0.0806 
    114 H114       23.8772    1.2419   -9.4935 H         1 UNK         0.0806 
    115 H115       27.2904    1.2702   -9.9511 H         1 UNK         0.3000 
    116 H116       27.5992    1.6466  -12.8629 H         1 UNK         0.0850 
    117 H117       27.4983   -0.8540  -13.2101 H         1 UNK         0.0810 
    118 H118       25.9487   -0.1768  -12.7516 H         1 UNK         0.0810 
    119 H119       26.8997   -1.0495  -11.5598 H         1 UNK         0.0810 
    120 H120       28.9325   -1.1467  -11.3544 H         1 UNK         0.3040 
    121 H121       31.6612   -0.2033  -11.6535 H         1 UNK         0.0766 
    122 H122       32.2020   -2.5310  -10.9328 H         1 UNK         0.0812 
    123 H123       31.0267   -2.5260  -12.2369 H         1 UNK         0.0812 
    124 H124       30.5069   -2.8333  -10.5792 H         1 UNK         0.0812 
    125 H125       31.1550    1.6285  -10.1479 H         1 UNK         0.3205 
    126 H126       30.8056    1.3905   -7.4000 H         1 UNK         0.0754 
    127 H127       31.5947    3.7667   -7.3424 H         1 UNK         0.0769 
    128 H128       30.5523    3.5086   -8.7314 H         1 UNK         0.0769 
    129 H129       32.2992    3.5910   -8.9446 H         1 UNK         0.0769 
    130 H130       32.1415    1.7038   -5.5943 H         1 UNK         0.2981 
    131 H131       34.4367    0.0470   -5.5970 H         1 UNK         0.0541 
    132 H132       36.1013    3.7069   -5.9452 H         1 UNK         0.3459 
    133 H133       34.4173    3.4316   -6.3165 H         1 UNK         0.3459 
    134 H134       33.4154    1.7793   -3.2998 H         1 UNK         0.0612 
    135 H135       34.4614    0.3900   -3.1593 H         1 UNK         0.0612 
    136 H136       33.7370   -2.0170   -4.0751 H         1 UNK         0.0624 
    137 H137       33.4057   -1.9004   -2.3594 H         1 UNK         0.0624 
@<TRIPOS>BOND
     1    1    2 1    
     2    1   72 1    
     3    1   73 1    
     4    1   74 1    
     5    2    3 2    
     6    2    4 am   BACKBONE|DICT|INTERRES
     7    4    5 1    
     8    4   75 1    
     9    5    6 1    
    10    5   35 1    
    11    5   76 1    
    12    6    7 1    
    13    6   77 1    
    14    6   78 1    
    15    7    8 1    
    16    8    9 1    
    17    8   79 1    
    18    8   80 1    
    19    9   10 ar   
    20    9   14 ar   
    21   10   11 ar   
    22   10   81 1    
    23   11   12 ar   
    24   11   71 1    
    25   12   13 ar   
    26   12   82 1    
    27   13   14 ar   
    28   13   15 1    
    29   14   83 1    
    30   15   16 1    
    31   15   84 1    
    32   15   85 1    
    33   16   17 1    
    34   17   18 1    
    35   17   86 1    
    36   17   87 1    
    37   18   19 1    
    38   18   37 1    
    39   18   88 1    
    40   19   20 am   BACKBONE|DICT|INTERRES
    41   19   89 1    
    42   20   21 2    
    43   20   22 1    
    44   22   23 1    
    45   22   24 1    
    46   22   90 1    
    47   23   91 1    
    48   23   92 1    
    49   23   93 1    
    50   24   25 am   BACKBONE|DICT|INTERRES
    51   24   94 1    
    52   25   26 2    
    53   25   27 1    
    54   27   28 1    
    55   27   29 1    
    56   27   95 1    
    57   28   96 1    
    58   28   97 1    
    59   28   98 1    
    60   29   30 am   BACKBONE|DICT|INTERRES
    61   29   99 1    
    62   30   31 2    
    63   30   32 1    
    64   32   33 1    
    65   32   34 1    
    66   32  100 1    
    67   33  101 1    
    68   33  102 1    
    69   33  103 1    
    70   34   35 am   BACKBONE|DICT|INTERRES
    71   34  104 1    
    72   35   36 2    
    73   37   38 2    
    74   37   39 am   BACKBONE|DICT|INTERRES
    75   39   40 1    
    76   39  105 1    
    77   40   41 1    
    78   40   42 1    
    79   40  106 1    
    80   41  107 1    
    81   41  108 1    
    82   41  109 1    
    83   42   43 2    
    84   42   44 am   BACKBONE|DICT|INTERRES
    85   44   45 1    
    86   44  110 1    
    87   45   46 1    
    88   45   47 1    
    89   45  111 1    
    90   46  112 1    
    91   46  113 1    
    92   46  114 1    
    93   47   48 2    
    94   47   49 am   BACKBONE|DICT|INTERRES
    95   49   50 1    
    96   49  115 1    
    97   50   51 1    
    98   50   52 1    
    99   50  116 1    
   100   51  117 1    
   101   51  118 1    
   102   51  119 1    
   103   52   53 2    
   104   52   54 am   BACKBONE|DICT|INTERRES
   105   54   55 1    
   106   54  120 1    
   107   55   56 1    
   108   55   57 1    
   109   55  121 1    
   110   56  122 1    
   111   56  123 1    
   112   56  124 1    
   113   57   58 2    
   114   57   59 am   BACKBONE|DICT|INTERRES
   115   59   60 1    
   116   59  125 1    
   117   60   61 1    
   118   60   62 1    
   119   60  126 1    
   120   61  127 1    
   121   61  128 1    
   122   61  129 1    
   123   62   63 2    
   124   62   64 am   BACKBONE|DICT|INTERRES
   125   64   65 1    
   126   64  130 1    
   127   65   66 1    
   128   65   69 1    
   129   65  131 1    
   130   66   67 am   BACKBONE|DICT|INTERRES
   131   66   68 2    
   132   67  132 1    
   133   67  133 1    
   134   69   70 1    
   135   69  134 1    
   136   69  135 1    
   137   70   71 1    
   138   71  136 1    
   139   71  137 1    
@<TRIPOS>SUBSTRUCTURE
     1 UNK         1 GROUP             0       ****    0 ROOT    
