@<TRIPOS>MOLECULE
3R137
137   139    1
SMALL
USER_CHARGES


@<TRIPOS>ATOM
      1 CA         24.5828   -4.8138   -3.1916 C.3       0 UNK        -0.2020 
      2 C          25.2941   -3.9382   -2.1715 C.2       0 UNK         0.4855 
      3 O          25.0029   -2.7437   -2.0819 O.2       0 UNK        -0.5197 
      4 N          26.2204   -4.5359   -1.4072 N.am      1 UNK        -0.4892 
      5 CA         26.9821   -3.9338   -0.3024 C.3       1 UNK         0.0835 
      6 C6         27.9245   -4.9482    0.4061 C.3       12 UNK        -0.0855 
      7 S7         28.7119   -6.2024   -0.6721 S.3       12 UNK        -0.2931 
      8 C8         30.2879   -5.4209   -1.1768 C.3       12 UNK         0.0378 
      9 C9         30.3349   -4.9111   -2.6213 C.ar      12 UNK        -0.0802 
     10 C10        31.3410   -4.0057   -2.9796 C.ar      12 UNK        -0.0944 
     11 C11        31.4364   -3.5151   -4.2866 C.ar      12 UNK        -0.0787 
     12 C12        30.5245   -3.9495   -5.2498 C.ar      12 UNK        -0.0862 
     13 C13        29.5059   -4.8418   -4.9090 C.ar      12 UNK        -0.0733 
     14 C14        29.4233   -5.3289   -3.6019 C.ar      12 UNK        -0.0832 
     15 C15        28.4816   -5.2672   -5.9488 C.3       12 UNK         0.0240 
     16 S16        27.0120   -4.1952   -5.8972 S.3       12 UNK        -0.2522 
     17 C17        27.7036   -2.6264   -6.5116 C.3       12 UNK        -0.0967 
     18 CA         26.6154   -1.6253   -6.9596 C.3       5 UNK         0.0660 
     19 N          25.7094   -1.2635   -5.8652 N.am      5 UNK        -0.4015 
     20 C          24.4845   -0.7455   -6.0246 C.2       4 UNK         0.4946 
     21 O          23.9832   -0.5038   -7.1233 O.2       4 UNK        -0.5353 
     22 CA         23.6737   -0.4493   -4.7505 C.3       4 UNK         0.0277 
     23 CB         22.7080   -1.6024   -4.4381 C.3       4 UNK        -0.1981 
     24 N          24.5261   -0.1872   -3.5854 N.am      4 UNK        -0.4209 
     25 C          25.0587    1.0172   -3.3304 C.2       3 UNK         0.4942 
     26 O          24.8508    2.0167   -4.0196 O.2       3 UNK        -0.5208 
     27 CA         25.9963    1.1350   -2.1171 C.3       3 UNK         0.0250 
     28 CB         25.1864    1.2150   -0.8131 C.3       3 UNK        -0.1990 
     29 N          26.9921    0.0669   -2.0027 N.am      3 UNK        -0.4232 
     30 C          27.8532   -0.3308   -2.9477 C.2       2 UNK         0.4993 
     31 O          27.8529    0.1002   -4.0972 O.2       2 UNK        -0.5286 
     32 CA         28.8694   -1.4167   -2.5681 C.3       2 UNK         0.0209 
     33 CB         30.0495   -0.8225   -1.7723 C.3       2 UNK        -0.1931 
     34 N          28.2591   -2.5697   -1.8946 N.am      2 UNK        -0.4546 
     35 C          27.7187   -2.6330   -0.6707 C.2       1 UNK         0.5154 
     36 O          27.7255   -1.6997    0.1339 O.2       1 UNK        -0.5181 
     37 C          27.2852   -0.3941   -7.5966 C.2       5 UNK         0.5014 
     38 O          27.5979   -0.4387   -8.7875 O.2       5 UNK        -0.5248 
     39 N          27.5209    0.6604   -6.8002 N.am      6 UNK        -0.4434 
     40 CA         28.2763    1.8773   -7.1208 C.3       6 UNK         0.0363 
     41 CB         28.1361    2.8786   -5.9634 C.3       6 UNK        -0.1936 
     42 C          27.9228    2.5626   -8.4497 C.2       6 UNK         0.5081 
     43 O          28.8152    3.1336   -9.0738 O.2       6 UNK        -0.5248 
     44 N          26.6606    2.4542   -8.8853 N.am      7 UNK        -0.4718 
     45 CA         26.1742    2.9369  -10.1821 C.3       7 UNK         0.0273 
     46 CB         24.6546    2.7185  -10.2591 C.3       7 UNK        -0.1935 
     47 C          26.8723    2.2952  -11.3991 C.2       7 UNK         0.5018 
     48 O          26.9263    2.9286  -12.4543 O.2       7 UNK        -0.5186 
     49 N          27.3938    1.0719  -11.2326 N.am      8 UNK        -0.4240 
     50 CA         28.1751    0.3474  -12.2350 C.3       8 UNK         0.0235 
     51 CB         27.4847   -0.9919  -12.5434 C.3       8 UNK        -0.2000 
     52 C          29.6170    0.1087  -11.7611 C.2       8 UNK         0.4941 
     53 O          30.5417    0.2491  -12.5620 O.2       8 UNK        -0.5273 
     54 N          29.7905   -0.2659  -10.4852 N.am      9 UNK        -0.4262 
     55 CA         31.0756   -0.6692   -9.9076 C.3       9 UNK         0.0264 
     56 CB         30.8193   -1.5253   -8.6553 C.3       9 UNK        -0.1955 
     57 C          32.0125    0.4998   -9.5637 C.2       9 UNK         0.5031 
     58 O          33.2203    0.2773   -9.4768 O.2       9 UNK        -0.5390 
     59 N          31.4544    1.6990   -9.3304 N.am      10 UNK        -0.4204 
     60 CA         32.1364    2.9377   -8.9194 C.3       10 UNK         0.0237 
     61 CB         33.1033    3.4232  -10.0207 C.3       10 UNK        -0.1985 
     62 C          32.8165    2.8880   -7.5320 C.2       10 UNK         0.4970 
     63 O          33.5270    3.8327   -7.1851 O.2       10 UNK        -0.4914 
     64 N          32.5869    1.8211   -6.7542 N.am      11 UNK        -0.4285 
     65 CA         33.1678    1.6048   -5.4195 C.3       11 UNK         0.1007 
     66 C          32.4635    2.3641   -4.2557 C.2       11 UNK         0.5703 
     67 N          31.3921    3.1096   -4.4983 N.am      11 UNK        -0.7361 
     68 O          32.9119    2.2928   -3.1139 O.2       11 UNK        -0.4986 
     69 C69        33.3675    0.0938   -5.1270 C.3       12 UNK        -0.0947 
     70 S70        31.8257   -0.8775   -5.0507 S.3       12 UNK        -0.2240 
     71 C71        32.5206   -2.5160   -4.6630 C.3       12 UNK         0.0194 
     72 H72        24.9982   -5.8207   -3.2268 H         1 UNK         0.0906 
     73 H73        23.5246   -4.8907   -2.9440 H         1 UNK         0.0906 
     74 H74        24.6676   -4.3825   -4.1871 H         1 UNK         0.0906 
     75 H75        26.4203   -5.5157   -1.5553 H         1 UNK         0.3140 
     76 H76        26.2332   -3.6292    0.4325 H         1 UNK         0.1085 
     77 H77        28.6841   -4.4473    1.0103 H         1 UNK         0.0836 
     78 H78        27.3310   -5.5106    1.1289 H         1 UNK         0.0836 
     79 H79        30.5235   -4.6050   -0.4919 H         1 UNK         0.0731 
     80 H80        31.0825   -6.1582   -1.0557 H         1 UNK         0.0731 
     81 H81        32.0515   -3.6763   -2.2338 H         1 UNK         0.1312 
     82 H82        30.5957   -3.5705   -6.2600 H         1 UNK         0.1406 
     83 H83        28.6391   -6.0323   -3.3614 H         1 UNK         0.1631 
     84 H84        28.1736   -6.2980   -5.7673 H         1 UNK         0.0717 
     85 H85        28.9167   -5.2512   -6.9493 H         1 UNK         0.0717 
     86 H86        28.3643   -2.8600   -7.3484 H         1 UNK         0.0934 
     87 H87        28.3320   -2.1895   -5.7337 H         1 UNK         0.0934 
     88 H88        26.0224   -2.1031   -7.7428 H         1 UNK         0.0739 
     89 H89        26.0581   -1.4023   -4.9286 H         1 UNK         0.3093 
     90 H90        23.0667    0.4363   -4.9525 H         1 UNK         0.0818 
     91 H91        22.0989   -1.3836   -3.5610 H         1 UNK         0.0819 
     92 H92        22.0263   -1.7762   -5.2718 H         1 UNK         0.0819 
     93 H93        23.2379   -2.5345   -4.2532 H         1 UNK         0.0819 
     94 H94        24.7318   -0.9699   -2.9683 H         1 UNK         0.3041 
     95 H95        26.5506    2.0689   -2.2297 H         1 UNK         0.0784 
     96 H96        24.4417    2.0109   -0.8619 H         1 UNK         0.0793 
     97 H97        24.6573    0.2827   -0.6102 H         1 UNK         0.0793 
     98 H98        25.8299    1.4269    0.0410 H         1 UNK         0.0793 
     99 H99        27.0764   -0.3865   -1.0971 H         1 UNK         0.3024 
    100 H100       29.2736   -1.8027   -3.5042 H         1 UNK         0.1171 
    101 H101       30.7883   -1.5840   -1.5266 H         1 UNK         0.0786 
    102 H102       29.7297   -0.3541   -0.8417 H         1 UNK         0.0786 
    103 H103       30.5591   -0.0549   -2.3564 H         1 UNK         0.0786 
    104 H104       28.1775   -3.4009   -2.4647 H         1 UNK         0.2977 
    105 H105       27.3272    0.5351   -5.8078 H         1 UNK         0.3127 
    106 H106       29.3246    1.5813   -7.1839 H         1 UNK         0.0770 
    107 H107       27.0915    3.1310   -5.7764 H         1 UNK         0.0814 
    108 H108       28.6644    3.8088   -6.1773 H         1 UNK         0.0814 
    109 H109       28.5513    2.4789   -5.0384 H         1 UNK         0.0814 
    110 H110       26.0026    1.9483   -8.3092 H         1 UNK         0.2983 
    111 H111       26.3716    4.0101  -10.2282 H         1 UNK         0.0947 
    112 H112       24.2541    3.0861  -11.2051 H         1 UNK         0.0806 
    113 H113       24.1354    3.2503   -9.4615 H         1 UNK         0.0806 
    114 H114       24.3950    1.6616  -10.1835 H         1 UNK         0.0806 
    115 H115       27.3063    0.6317  -10.3203 H         1 UNK         0.3000 
    116 H116       28.2309    0.9199  -13.1635 H         1 UNK         0.0850 
    117 H117       28.0507   -1.5635  -13.2802 H         1 UNK         0.0810 
    118 H118       26.4864   -0.8352  -12.9522 H         1 UNK         0.0810 
    119 H119       27.3865   -1.6124  -11.6514 H         1 UNK         0.0810 
    120 H120       28.9718   -0.3740   -9.8879 H         1 UNK         0.3040 
    121 H121       31.5953   -1.2935  -10.6379 H         1 UNK         0.0766 
    122 H122       31.7572   -1.8745   -8.2206 H         1 UNK         0.0812 
    123 H123       30.2923   -0.9664   -7.8815 H         1 UNK         0.0812 
    124 H124       30.2286   -2.4089   -8.8964 H         1 UNK         0.0812 
    125 H125       30.4516    1.7933   -9.4468 H         1 UNK         0.3205 
    126 H126       31.3546    3.6920   -8.8279 H         1 UNK         0.0754 
    127 H127       33.4867    4.4193   -9.7964 H         1 UNK         0.0769 
    128 H128       32.6039    3.4817  -10.9879 H         1 UNK         0.0769 
    129 H129       33.9640    2.7623  -10.1267 H         1 UNK         0.0769 
    130 H130       31.9973    1.0805   -7.0996 H         1 UNK         0.2981 
    131 H131       34.1724    2.0310   -5.4445 H         1 UNK         0.0541 
    132 H132       31.0334    3.1955   -5.4334 H         1 UNK         0.3459 
    133 H133       30.9549    3.6032   -3.7370 H         1 UNK         0.3459 
    134 H134       33.9084   -0.0390   -4.1882 H         1 UNK         0.0612 
    135 H135       34.0035   -0.3437   -5.8984 H         1 UNK         0.0612 
    136 H136       33.0734   -2.8855   -5.5278 H         1 UNK         0.0624 
    137 H137       33.2422   -2.4162   -3.8508 H         1 UNK         0.0624 
@<TRIPOS>BOND
     1    1    2 1    
     2    1   72 1    
     3    1   73 1    
     4    1   74 1    
     5    2    3 2    
     6    2    4 am   BACKBONE|DICT|INTERRES
     7    4    5 1    
     8    4   75 1    
     9    5    6 1    
    10    5   35 1    
    11    5   76 1    
    12    6    7 1    
    13    6   77 1    
    14    6   78 1    
    15    7    8 1    
    16    8    9 1    
    17    8   79 1    
    18    8   80 1    
    19    9   10 ar   
    20    9   14 ar   
    21   10   11 ar   
    22   10   81 1    
    23   11   12 ar   
    24   11   71 1    
    25   12   13 ar   
    26   12   82 1    
    27   13   14 ar   
    28   13   15 1    
    29   14   83 1    
    30   15   16 1    
    31   15   84 1    
    32   15   85 1    
    33   16   17 1    
    34   17   18 1    
    35   17   86 1    
    36   17   87 1    
    37   18   19 1    
    38   18   37 1    
    39   18   88 1    
    40   19   20 am   BACKBONE|DICT|INTERRES
    41   19   89 1    
    42   20   21 2    
    43   20   22 1    
    44   22   23 1    
    45   22   24 1    
    46   22   90 1    
    47   23   91 1    
    48   23   92 1    
    49   23   93 1    
    50   24   25 am   BACKBONE|DICT|INTERRES
    51   24   94 1    
    52   25   26 2    
    53   25   27 1    
    54   27   28 1    
    55   27   29 1    
    56   27   95 1    
    57   28   96 1    
    58   28   97 1    
    59   28   98 1    
    60   29   30 am   BACKBONE|DICT|INTERRES
    61   29   99 1    
    62   30   31 2    
    63   30   32 1    
    64   32   33 1    
    65   32   34 1    
    66   32  100 1    
    67   33  101 1    
    68   33  102 1    
    69   33  103 1    
    70   34   35 am   BACKBONE|DICT|INTERRES
    71   34  104 1    
    72   35   36 2    
    73   37   38 2    
    74   37   39 am   BACKBONE|DICT|INTERRES
    75   39   40 1    
    76   39  105 1    
    77   40   41 1    
    78   40   42 1    
    79   40  106 1    
    80   41  107 1    
    81   41  108 1    
    82   41  109 1    
    83   42   43 2    
    84   42   44 am   BACKBONE|DICT|INTERRES
    85   44   45 1    
    86   44  110 1    
    87   45   46 1    
    88   45   47 1    
    89   45  111 1    
    90   46  112 1    
    91   46  113 1    
    92   46  114 1    
    93   47   48 2    
    94   47   49 am   BACKBONE|DICT|INTERRES
    95   49   50 1    
    96   49  115 1    
    97   50   51 1    
    98   50   52 1    
    99   50  116 1    
   100   51  117 1    
   101   51  118 1    
   102   51  119 1    
   103   52   53 2    
   104   52   54 am   BACKBONE|DICT|INTERRES
   105   54   55 1    
   106   54  120 1    
   107   55   56 1    
   108   55   57 1    
   109   55  121 1    
   110   56  122 1    
   111   56  123 1    
   112   56  124 1    
   113   57   58 2    
   114   57   59 am   BACKBONE|DICT|INTERRES
   115   59   60 1    
   116   59  125 1    
   117   60   61 1    
   118   60   62 1    
   119   60  126 1    
   120   61  127 1    
   121   61  128 1    
   122   61  129 1    
   123   62   63 2    
   124   62   64 am   BACKBONE|DICT|INTERRES
   125   64   65 1    
   126   64  130 1    
   127   65   66 1    
   128   65   69 1    
   129   65  131 1    
   130   66   67 am   BACKBONE|DICT|INTERRES
   131   66   68 2    
   132   67  132 1    
   133   67  133 1    
   134   69   70 1    
   135   69  134 1    
   136   69  135 1    
   137   70   71 1    
   138   71  136 1    
   139   71  137 1    
@<TRIPOS>SUBSTRUCTURE
     1 UNK         1 GROUP             0       ****    0 ROOT    
