@<TRIPOS>MOLECULE
3R137
137   139    1
SMALL
USER_CHARGES


@<TRIPOS>ATOM
      1 CA         25.9100   -4.9373   -3.4605 C.3       0 UNK        -0.2020 
      2 C          26.4938   -3.6334   -2.9381 C.2       0 UNK         0.4855 
      3 O          26.6065   -2.6638   -3.6944 O.2       0 UNK        -0.5197 
      4 N          26.8575   -3.6199   -1.6468 N.am      1 UNK        -0.4892 
      5 CA         27.4853   -2.5063   -0.9202 C.3       1 UNK         0.0835 
      6 C6         28.9464   -2.2427   -1.3825 C.3       12 UNK        -0.0855 
      7 S7         30.1315   -3.3837   -0.5951 S.3       12 UNK        -0.2931 
      8 C8         30.1787   -4.7881   -1.7600 C.3       12 UNK         0.0378 
      9 C9         30.7347   -4.4752   -3.1490 C.ar      12 UNK        -0.0802 
     10 C10        31.7240   -3.5054   -3.3599 C.ar      12 UNK        -0.0944 
     11 C11        32.2362   -3.2753   -4.6412 C.ar      12 UNK        -0.0787 
     12 C12        31.7619   -4.0324   -5.7171 C.ar      12 UNK        -0.0862 
     13 C13        30.7728   -4.9995   -5.5231 C.ar      12 UNK        -0.0733 
     14 C14        30.2689   -5.2179   -4.2379 C.ar      12 UNK        -0.0832 
     15 C15        30.2529   -5.8167   -6.6980 C.3       12 UNK         0.0240 
     16 S16        29.2582   -4.8236   -7.8569 S.3       12 UNK        -0.2522 
     17 C17        27.8824   -4.2535   -6.7996 C.3       12 UNK        -0.0967 
     18 CA         27.3303   -2.8776   -7.2380 C.3       5 UNK         0.0660 
     19 N          26.0194   -2.6028   -6.6428 N.am      5 UNK        -0.4015 
     20 C          25.2375   -1.5637   -6.9647 C.2       4 UNK         0.4946 
     21 O          25.5110   -0.7519   -7.8504 O.2       4 UNK        -0.5353 
     22 CA         23.9932   -1.3380   -6.1002 C.3       4 UNK         0.0277 
     23 CB         23.3777   -2.6347   -5.5399 C.3       4 UNK        -0.1981 
     24 N          24.3805   -0.4631   -4.9960 N.am      4 UNK        -0.4209 
     25 C          24.0814    0.8398   -4.9155 C.2       3 UNK         0.4942 
     26 O          23.3587    1.4264   -5.7227 O.2       3 UNK        -0.5208 
     27 CA         24.7097    1.6209   -3.7424 C.3       3 UNK         0.0250 
     28 CB         24.0009    2.9655   -3.4727 C.3       3 UNK        -0.1990 
     29 N          24.8248    0.8428   -2.5012 N.am      3 UNK        -0.4232 
     30 C          23.8376    0.2580   -1.8074 C.2       2 UNK         0.4993 
     31 O          22.6573    0.2525   -2.1617 O.2       2 UNK        -0.5286 
     32 CA         24.2481   -0.4383   -0.4938 C.3       2 UNK         0.0209 
     33 CB         23.0500   -1.0715    0.2401 C.3       2 UNK        -0.1931 
     34 N          25.2767   -1.4669   -0.6819 N.am      2 UNK        -0.4546 
     35 C          26.5844   -1.2488   -0.8833 C.2       1 UNK         0.5154 
     36 O          27.0617   -0.1205   -1.0197 O.2       1 UNK        -0.5181 
     37 C          28.3230   -1.7247   -6.9732 C.2       5 UNK         0.5014 
     38 O          29.0557   -1.3447   -7.8862 O.2       5 UNK        -0.5248 
     39 N          28.2578   -1.1257   -5.7722 N.am      6 UNK        -0.4434 
     40 CA         29.0031    0.0840   -5.4067 C.3       6 UNK         0.0363 
     41 CB         28.7189    0.4593   -3.9461 C.3       6 UNK        -0.1936 
     42 C          28.7554    1.2947   -6.3231 C.2       6 UNK         0.5081 
     43 O          29.6825    2.0756   -6.5389 O.2       6 UNK        -0.5248 
     44 N          27.5307    1.4297   -6.8495 N.am      7 UNK        -0.4718 
     45 CA         27.1790    2.4688   -7.8162 C.3       7 UNK         0.0273 
     46 CB         25.6820    2.7977   -7.7158 C.3       7 UNK        -0.1935 
     47 C          27.5544    2.0502   -9.2439 C.2       7 UNK         0.5018 
     48 O          28.1212    2.8625   -9.9739 O.2       7 UNK        -0.5186 
     49 N          27.2526    0.7952   -9.6108 N.am      8 UNK        -0.4240 
     50 CA         27.5042    0.2285  -10.9399 C.3       8 UNK         0.0235 
     51 CB         26.8555   -1.1609  -11.0434 C.3       8 UNK        -0.2000 
     52 C          28.9959    0.1594  -11.3085 C.2       8 UNK         0.4941 
     53 O          29.3592    0.5404  -12.4219 O.2       8 UNK        -0.5273 
     54 N          29.8320   -0.3028  -10.3691 N.am      9 UNK        -0.4262 
     55 CA         31.2896   -0.3594  -10.5140 C.3       9 UNK         0.0264 
     56 CB         31.8291   -1.5335   -9.6797 C.3       9 UNK        -0.1955 
     57 C          31.9816    0.9578  -10.1149 C.2       9 UNK         0.5031 
     58 O          33.1825    1.0924  -10.3524 O.2       9 UNK        -0.5390 
     59 N          31.2299    1.8898   -9.5071 N.am      10 UNK        -0.4204 
     60 CA         31.6477    3.2066   -9.0037 C.3       10 UNK         0.0237 
     61 CB         32.1000    4.1204  -10.1625 C.3       10 UNK        -0.1985 
     62 C          32.6767    3.1537   -7.8536 C.2       10 UNK         0.4970 
     63 O          33.3388    4.1578   -7.5847 O.2       10 UNK        -0.4914 
     64 N          32.7859    1.9989   -7.1876 N.am      11 UNK        -0.4285 
     65 CA         33.6450    1.7604   -6.0203 C.3       11 UNK         0.1007 
     66 C          33.0548    2.2702   -4.6735 C.2       11 UNK         0.5703 
     67 N          31.7844    2.6507   -4.5997 N.am      11 UNK        -0.7361 
     68 O          33.7739    2.3415   -3.6798 O.2       11 UNK        -0.4986 
     69 C69        34.0963    0.2767   -5.9492 C.3       12 UNK        -0.0947 
     70 S70        32.7002   -0.8964   -5.9523 S.3       12 UNK        -0.2240 
     71 C71        33.3065   -2.2158   -4.8651 C.3       12 UNK         0.0194 
     72 H72        26.2213   -5.1165   -4.4878 H         1 UNK         0.0906 
     73 H73        26.2378   -5.7885   -2.8635 H         1 UNK         0.0906 
     74 H74        24.8215   -4.9033   -3.4316 H         1 UNK         0.0906 
     75 H75        26.7118   -4.4540   -1.0944 H         1 UNK         0.3140 
     76 H76        27.5262   -2.8157    0.1258 H         1 UNK         0.1085 
     77 H77        29.0366   -2.3041   -2.4673 H         1 UNK         0.0836 
     78 H78        29.2820   -1.2422   -1.1060 H         1 UNK         0.0836 
     79 H79        30.7937   -5.5738   -1.3196 H         1 UNK         0.0731 
     80 H80        29.1723   -5.2002   -1.8406 H         1 UNK         0.0731 
     81 H81        32.1023   -2.9306   -2.5262 H         1 UNK         0.1312 
     82 H82        32.1518   -3.8567   -6.7108 H         1 UNK         0.1406 
     83 H83        29.5122   -5.9755   -4.0840 H         1 UNK         0.1631 
     84 H84        29.6548   -6.6612   -6.3520 H         1 UNK         0.0717 
     85 H85        31.0987   -6.2439   -7.2384 H         1 UNK         0.0717 
     86 H86        27.0984   -5.0094   -6.8657 H         1 UNK         0.0934 
     87 H87        28.1849   -4.2206   -5.7530 H         1 UNK         0.0934 
     88 H88        27.1681   -2.9187   -8.3161 H         1 UNK         0.0739 
     89 H89        25.7598   -3.1645   -5.8455 H         1 UNK         0.3093 
     90 H90        23.2438   -0.8615   -6.7358 H         1 UNK         0.0818 
     91 H91        22.4207   -2.4286   -5.0600 H         1 UNK         0.0819 
     92 H92        23.1879   -3.3584   -6.3340 H         1 UNK         0.0819 
     93 H93        24.0137   -3.1105   -4.7959 H         1 UNK         0.0819 
     94 H94        24.9826   -0.8662   -4.2899 H         1 UNK         0.3041 
     95 H95        25.7291    1.8522   -4.0541 H         1 UNK         0.0784 
     96 H96        24.0270    3.6075   -4.3542 H         1 UNK         0.0793 
     97 H97        22.9533    2.8225   -3.2050 H         1 UNK         0.0793 
     98 H98        24.4827    3.5127   -2.6625 H         1 UNK         0.0793 
     99 H99        25.7618    0.7447   -2.1155 H         1 UNK         0.3024 
    100 H100       24.6561    0.3403    0.1553 H         1 UNK         0.1171 
    101 H101       22.5878   -1.8640   -0.3499 H         1 UNK         0.0786 
    102 H102       22.2796   -0.3274    0.4477 H         1 UNK         0.0786 
    103 H103       23.3501   -1.4966    1.1980 H         1 UNK         0.0786 
    104 H104       24.9649   -2.4261   -0.6303 H         1 UNK         0.2977 
    105 H105       27.6563   -1.5317   -5.0621 H         1 UNK         0.3127 
    106 H106       30.0621   -0.1529   -5.4883 H         1 UNK         0.0770 
    107 H107       29.2404   -0.2119   -3.2694 H         1 UNK         0.0814 
    108 H108       27.6559    0.4214   -3.7123 H         1 UNK         0.0814 
    109 H109       29.0718    1.4652   -3.7136 H         1 UNK         0.0814 
    110 H110       26.8432    0.7068   -6.6862 H         1 UNK         0.2983 
    111 H111       27.7337    3.3804   -7.5808 H         1 UNK         0.0947 
    112 H112       25.4060    3.5768   -8.4275 H         1 UNK         0.0806 
    113 H113       25.4235    3.1632   -6.7222 H         1 UNK         0.0806 
    114 H114       25.0570    1.9293   -7.9266 H         1 UNK         0.0806 
    115 H115       26.7539    0.2041   -8.9498 H         1 UNK         0.3000 
    116 H116       27.0167    0.8825  -11.6660 H         1 UNK         0.0850 
    117 H117       26.9529   -1.5612  -12.0533 H         1 UNK         0.0810 
    118 H118       25.7913   -1.1231  -10.8094 H         1 UNK         0.0810 
    119 H119       27.3236   -1.8741  -10.3656 H         1 UNK         0.0810 
    120 H120       29.4537   -0.6314   -9.4788 H         1 UNK         0.3040 
    121 H121       31.5396   -0.5507  -11.5597 H         1 UNK         0.0766 
    122 H122       32.9112   -1.6255   -9.7806 H         1 UNK         0.0812 
    123 H123       31.3908   -2.4799   -9.9970 H         1 UNK         0.0812 
    124 H124       31.6104   -1.4076   -8.6201 H         1 UNK         0.0812 
    125 H125       30.2514    1.6744   -9.3728 H         1 UNK         0.3205 
    126 H126       30.7501    3.6519   -8.5721 H         1 UNK         0.0754 
    127 H127       32.2585    5.1430   -9.8179 H         1 UNK         0.0769 
    128 H128       31.3479    4.1599  -10.9506 H         1 UNK         0.0769 
    129 H129       33.0354    3.7790  -10.6067 H         1 UNK         0.0769 
    130 H130       32.1751    1.2369   -7.4408 H         1 UNK         0.2981 
    131 H131       34.5541    2.3467   -6.1667 H         1 UNK         0.0541 
    132 H132       31.1666    2.5608   -5.4004 H         1 UNK         0.3459 
    133 H133       31.4263    2.9933   -3.7237 H         1 UNK         0.3459 
    134 H134       34.7239    0.1060   -5.0728 H         1 UNK         0.0612 
    135 H135       34.7227    0.0448   -6.8117 H         1 UNK         0.0612 
    136 H136       34.1874   -2.6755   -5.3115 H         1 UNK         0.0624 
    137 H137       33.6228   -1.7796   -3.9179 H         1 UNK         0.0624 
@<TRIPOS>BOND
     1    1    2 1    
     2    1   72 1    
     3    1   73 1    
     4    1   74 1    
     5    2    3 2    
     6    2    4 am   BACKBONE|DICT|INTERRES
     7    4    5 1    
     8    4   75 1    
     9    5    6 1    
    10    5   35 1    
    11    5   76 1    
    12    6    7 1    
    13    6   77 1    
    14    6   78 1    
    15    7    8 1    
    16    8    9 1    
    17    8   79 1    
    18    8   80 1    
    19    9   10 ar   
    20    9   14 ar   
    21   10   11 ar   
    22   10   81 1    
    23   11   12 ar   
    24   11   71 1    
    25   12   13 ar   
    26   12   82 1    
    27   13   14 ar   
    28   13   15 1    
    29   14   83 1    
    30   15   16 1    
    31   15   84 1    
    32   15   85 1    
    33   16   17 1    
    34   17   18 1    
    35   17   86 1    
    36   17   87 1    
    37   18   19 1    
    38   18   37 1    
    39   18   88 1    
    40   19   20 am   BACKBONE|DICT|INTERRES
    41   19   89 1    
    42   20   21 2    
    43   20   22 1    
    44   22   23 1    
    45   22   24 1    
    46   22   90 1    
    47   23   91 1    
    48   23   92 1    
    49   23   93 1    
    50   24   25 am   BACKBONE|DICT|INTERRES
    51   24   94 1    
    52   25   26 2    
    53   25   27 1    
    54   27   28 1    
    55   27   29 1    
    56   27   95 1    
    57   28   96 1    
    58   28   97 1    
    59   28   98 1    
    60   29   30 am   BACKBONE|DICT|INTERRES
    61   29   99 1    
    62   30   31 2    
    63   30   32 1    
    64   32   33 1    
    65   32   34 1    
    66   32  100 1    
    67   33  101 1    
    68   33  102 1    
    69   33  103 1    
    70   34   35 am   BACKBONE|DICT|INTERRES
    71   34  104 1    
    72   35   36 2    
    73   37   38 2    
    74   37   39 am   BACKBONE|DICT|INTERRES
    75   39   40 1    
    76   39  105 1    
    77   40   41 1    
    78   40   42 1    
    79   40  106 1    
    80   41  107 1    
    81   41  108 1    
    82   41  109 1    
    83   42   43 2    
    84   42   44 am   BACKBONE|DICT|INTERRES
    85   44   45 1    
    86   44  110 1    
    87   45   46 1    
    88   45   47 1    
    89   45  111 1    
    90   46  112 1    
    91   46  113 1    
    92   46  114 1    
    93   47   48 2    
    94   47   49 am   BACKBONE|DICT|INTERRES
    95   49   50 1    
    96   49  115 1    
    97   50   51 1    
    98   50   52 1    
    99   50  116 1    
   100   51  117 1    
   101   51  118 1    
   102   51  119 1    
   103   52   53 2    
   104   52   54 am   BACKBONE|DICT|INTERRES
   105   54   55 1    
   106   54  120 1    
   107   55   56 1    
   108   55   57 1    
   109   55  121 1    
   110   56  122 1    
   111   56  123 1    
   112   56  124 1    
   113   57   58 2    
   114   57   59 am   BACKBONE|DICT|INTERRES
   115   59   60 1    
   116   59  125 1    
   117   60   61 1    
   118   60   62 1    
   119   60  126 1    
   120   61  127 1    
   121   61  128 1    
   122   61  129 1    
   123   62   63 2    
   124   62   64 am   BACKBONE|DICT|INTERRES
   125   64   65 1    
   126   64  130 1    
   127   65   66 1    
   128   65   69 1    
   129   65  131 1    
   130   66   67 am   BACKBONE|DICT|INTERRES
   131   66   68 2    
   132   67  132 1    
   133   67  133 1    
   134   69   70 1    
   135   69  134 1    
   136   69  135 1    
   137   70   71 1    
   138   71  136 1    
   139   71  137 1    
@<TRIPOS>SUBSTRUCTURE
     1 UNK         1 GROUP             0       ****    0 ROOT    
