@<TRIPOS>MOLECULE
3R137
137   139    1
SMALL
USER_CHARGES


@<TRIPOS>ATOM
      1 CA         31.5611   -0.0647   -0.4805 C.3       0 UNK        -0.2020 
      2 C          30.3964   -0.7030   -1.2204 C.2       0 UNK         0.4855 
      3 O          29.9360   -0.1561   -2.2199 O.2       0 UNK        -0.5197 
      4 N          29.8989   -1.8445   -0.7277 N.am      1 UNK        -0.4892 
      5 CA         28.8737   -2.7057   -1.3445 C.3       1 UNK         0.0835 
      6 C6         28.9069   -4.1439   -0.7474 C.3       12 UNK        -0.0855 
      7 S7         30.5823   -4.8602   -0.5901 S.3       12 UNK        -0.2931 
      8 C8         30.6617   -5.9858   -2.0208 C.3       12 UNK         0.0378 
      9 C9         30.6019   -5.2477   -3.3517 C.ar      12 UNK        -0.0802 
     10 C10        31.5215   -4.2337   -3.6414 C.ar      12 UNK        -0.0944 
     11 C11        31.4717   -3.5545   -4.8615 C.ar      12 UNK        -0.0787 
     12 C12        30.4939   -3.9015   -5.7977 C.ar      12 UNK        -0.0862 
     13 C13        29.5768   -4.9215   -5.5283 C.ar      12 UNK        -0.0733 
     14 C14        29.6377   -5.5935   -4.3038 C.ar      12 UNK        -0.0832 
     15 C15        28.5210   -5.2894   -6.5642 C.3       12 UNK         0.0240 
     16 S16        26.8144   -5.0550   -5.9633 S.3       12 UNK        -0.2522 
     17 C17        26.8412   -3.3129   -5.4353 C.3       12 UNK        -0.0967 
     18 CA         26.5947   -2.3275   -6.6122 C.3       5 UNK         0.0660 
     19 N          25.2215   -1.8084   -6.6159 N.am      5 UNK        -0.4015 
     20 C          24.6907   -1.0138   -7.5580 C.2       4 UNK         0.4946 
     21 O          25.2964   -0.6438   -8.5612 O.2       4 UNK        -0.5353 
     22 CA         23.2490   -0.5212   -7.3491 C.3       4 UNK         0.0277 
     23 CB         22.2588   -1.4339   -8.0897 C.3       4 UNK        -0.1981 
     24 N          22.8678   -0.4283   -5.9393 N.am      4 UNK        -0.4209 
     25 C          23.3677    0.4607   -5.0698 C.2       3 UNK         0.4942 
     26 O          24.1611    1.3501   -5.3862 O.2       3 UNK        -0.5208 
     27 CA         22.9162    0.3303   -3.5984 C.3       3 UNK         0.0250 
     28 CB         22.1236   -0.9631   -3.2958 C.3       3 UNK        -0.1990 
     29 N          24.0206    0.4577   -2.6383 N.am      3 UNK        -0.4232 
     30 C          25.1833   -0.2128   -2.6389 C.2       2 UNK         0.4993 
     31 O          25.5404   -0.9693   -3.5459 O.2       2 UNK        -0.5286 
     32 CA         26.1088    0.0469   -1.4334 C.3       2 UNK         0.0209 
     33 CB         25.3714   -0.0865   -0.0815 C.3       2 UNK        -0.1931 
     34 N          27.3221   -0.7824   -1.4475 N.am      2 UNK        -0.4546 
     35 C          27.4388   -2.1100   -1.2985 C.2       1 UNK         0.5154 
     36 O          26.4780   -2.8565   -1.0973 O.2       1 UNK        -0.5181 
     37 C          27.6280   -1.1856   -6.6023 C.2       5 UNK         0.5014 
     38 O          28.5246   -1.1664   -7.4496 O.2       5 UNK        -0.5248 
     39 N          27.4414   -0.2388   -5.6708 N.am      6 UNK        -0.4434 
     40 CA         28.2535    0.9710   -5.5252 C.3       6 UNK         0.0363 
     41 CB         27.7704    1.7766   -4.3111 C.3       6 UNK        -0.1936 
     42 C          28.2618    1.8613   -6.7755 C.2       6 UNK         0.5081 
     43 O          29.2976    2.4508   -7.0828 O.2       6 UNK        -0.5248 
     44 N          27.1178    1.9387   -7.4676 N.am      7 UNK        -0.4718 
     45 CA         26.9600    2.6799   -8.7165 C.3       7 UNK         0.0273 
     46 CB         25.4683    2.9545   -8.9690 C.3       7 UNK        -0.1935 
     47 C          27.5966    1.9457   -9.9065 C.2       7 UNK         0.5018 
     48 O          28.3569    2.5613  -10.6534 O.2       7 UNK        -0.5186 
     49 N          27.2802    0.6514  -10.0608 N.am      8 UNK        -0.4240 
     50 CA         27.7118   -0.1930  -11.1779 C.3       8 UNK         0.0235 
     51 CB         26.9737   -1.5409  -11.1277 C.3       8 UNK        -0.2000 
     52 C          29.2292   -0.4148  -11.2308 C.2       8 UNK         0.4941 
     53 O          29.8160   -0.2985  -12.3076 O.2       8 UNK        -0.5273 
     54 N          29.8382   -0.7201  -10.0772 N.am      9 UNK        -0.4262 
     55 CA         31.2847   -0.9274   -9.9587 C.3       9 UNK         0.0264 
     56 CB         31.5514   -1.9179   -8.8184 C.3       9 UNK        -0.1955 
     57 C          32.0643    0.3781   -9.7258 C.2       9 UNK         0.5031 
     58 O          33.2945    0.3501   -9.7781 O.2       9 UNK        -0.5390 
     59 N          31.3510    1.4786   -9.4398 N.am      10 UNK        -0.4204 
     60 CA         31.8587    2.8072   -9.0724 C.3       10 UNK         0.0237 
     61 CB         32.6607    3.4383  -10.2310 C.3       10 UNK        -0.1985 
     62 C          32.6257    2.8342   -7.7319 C.2       10 UNK         0.4970 
     63 O          33.3710    3.7838   -7.4834 O.2       10 UNK        -0.4914 
     64 N          32.4267    1.8123   -6.8878 N.am      11 UNK        -0.4285 
     65 CA         33.0068    1.7038   -5.5422 C.3       11 UNK         0.1007 
     66 C          32.2543    2.5173   -4.4487 C.2       11 UNK         0.5703 
     67 N          31.0977    3.1059   -4.7327 N.am      11 UNK        -0.7361 
     68 O          32.7487    2.6444   -3.3309 O.2       11 UNK        -0.4986 
     69 C69        33.2567    0.2258   -5.1378 C.3       12 UNK        -0.0947 
     70 S70        31.7547   -0.8058   -5.0528 S.3       12 UNK        -0.2240 
     71 C71        32.4872   -2.4645   -5.1739 C.3       12 UNK         0.0194 
     72 H72        31.9125   -0.6859    0.3430 H         1 UNK         0.0906 
     73 H73        32.3934    0.0942   -1.1661 H         1 UNK         0.0906 
     74 H74        31.2643    0.9032   -0.0777 H         1 UNK         0.0906 
     75 H75        30.3130   -2.2322    0.1084 H         1 UNK         0.3140 
     76 H76        29.1252   -2.7876   -2.4047 H         1 UNK         0.1085 
     77 H77        28.4683   -4.1448    0.2525 H         1 UNK         0.0836 
     78 H78        28.2873   -4.8159   -1.3447 H         1 UNK         0.0836 
     79 H79        31.5958   -6.5472   -1.9740 H         1 UNK         0.0731 
     80 H80        29.8581   -6.7197   -1.9401 H         1 UNK         0.0731 
     81 H81        32.2733   -3.9703   -2.9098 H         1 UNK         0.1312 
     82 H82        30.4426   -3.3724   -6.7368 H         1 UNK         0.1406 
     83 H83        28.9259   -6.3807   -4.0939 H         1 UNK         0.1631 
     84 H84        28.6532   -6.3334   -6.8511 H         1 UNK         0.0717 
     85 H85        28.6520   -4.7030   -7.4753 H         1 UNK         0.0717 
     86 H86        27.7768   -3.1159   -4.9088 H         1 UNK         0.0934 
     87 H87        26.0782   -3.2030   -4.6641 H         1 UNK         0.0934 
     88 H88        26.7341   -2.8511   -7.5606 H         1 UNK         0.0739 
     89 H89        24.6666   -2.0171   -5.7990 H         1 UNK         0.3093 
     90 H90        23.1805    0.4789   -7.7828 H         1 UNK         0.0818 
     91 H91        21.2397   -1.0527   -8.0220 H         1 UNK         0.0819 
     92 H92        22.5082   -1.4985   -9.1500 H         1 UNK         0.0819 
     93 H93        22.2665   -2.4494   -7.6915 H         1 UNK         0.0819 
     94 H94        22.2116   -1.1156   -5.5971 H         1 UNK         0.3041 
     95 H95        22.2522    1.1764   -3.4158 H         1 UNK         0.0784 
     96 H96        21.2084   -1.0239   -3.8861 H         1 UNK         0.0793 
     97 H97        22.7150   -1.8589   -3.4912 H         1 UNK         0.0793 
     98 H98        21.8200   -0.9970   -2.2492 H         1 UNK         0.0793 
     99 H99        23.8537    1.1060   -1.8820 H         1 UNK         0.3024 
    100 H100       26.4510    1.0789   -1.5233 H         1 UNK         0.1171 
    101 H101       26.0610    0.0155    0.7566 H         1 UNK         0.0786 
    102 H102       24.8708   -1.0507    0.0150 H         1 UNK         0.0786 
    103 H103       24.6120    0.6862    0.0396 H         1 UNK         0.0786 
    104 H104       28.1871   -0.2991   -1.6819 H         1 UNK         0.2977 
    105 H105       26.6868   -0.3709   -5.0010 H         1 UNK         0.3127 
    106 H106       29.2815    0.6588   -5.3398 H         1 UNK         0.0770 
    107 H107       26.7052    2.0026   -4.3713 H         1 UNK         0.0814 
    108 H108       28.3008    2.7257   -4.2289 H         1 UNK         0.0814 
    109 H109       27.9550    1.2312   -3.3888 H         1 UNK         0.0814 
    110 H110       26.3193    1.4149   -7.1361 H         1 UNK         0.2983 
    111 H111       27.4660    3.6425   -8.6110 H         1 UNK         0.0947 
    112 H112       25.3289    3.5340   -9.8826 H         1 UNK         0.0806 
    113 H113       25.0277    3.5265   -8.1521 H         1 UNK         0.0806 
    114 H114       24.8956    2.0331   -9.0774 H         1 UNK         0.0806 
    115 H115       26.6276    0.2238   -9.4037 H         1 UNK         0.3000 
    116 H116       27.4233    0.3151  -12.1005 H         1 UNK         0.0850 
    117 H117       27.2780   -2.1870  -11.9523 H         1 UNK         0.0810 
    118 H118       25.8950   -1.4038  -11.2049 H         1 UNK         0.0810 
    119 H119       27.1752   -2.0763  -10.1987 H         1 UNK         0.0810 
    120 H120       29.2854   -0.8185   -9.2272 H         1 UNK         0.3040 
    121 H121       31.6648   -1.3717  -10.8812 H         1 UNK         0.0766 
    122 H122       32.6172   -2.1269   -8.7176 H         1 UNK         0.0812 
    123 H123       31.2035   -1.5198   -7.8661 H         1 UNK         0.0812 
    124 H124       31.0489   -2.8687   -8.9956 H         1 UNK         0.0812 
    125 H125       30.3437    1.3900   -9.4290 H         1 UNK         0.3205 
    126 H126       30.9748    3.4279   -8.9198 H         1 UNK         0.0754 
    127 H127       32.8913    4.4839  -10.0238 H         1 UNK         0.0769 
    128 H128       32.0958    3.4123  -11.1630 H         1 UNK         0.0769 
    129 H129       33.6082    2.9251  -10.3971 H         1 UNK         0.0769 
    130 H130       31.7636    1.0958   -7.1410 H         1 UNK         0.2981 
    131 H131       33.9957    2.1638   -5.5878 H         1 UNK         0.0541 
    132 H132       30.6657    2.9872   -5.6413 H         1 UNK         0.3459 
    133 H133       30.6364    3.6439   -4.0181 H         1 UNK         0.3459 
    134 H134       33.7624    0.1742   -4.1719 H         1 UNK         0.0612 
    135 H135       33.9428   -0.2271   -5.8553 H         1 UNK         0.0612 
    136 H136       32.8894   -2.6113   -6.1768 H         1 UNK         0.0624 
    137 H137       33.3342   -2.5299   -4.4891 H         1 UNK         0.0624 
@<TRIPOS>BOND
     1    1    2 1    
     2    1   72 1    
     3    1   73 1    
     4    1   74 1    
     5    2    3 2    
     6    2    4 am   BACKBONE|DICT|INTERRES
     7    4    5 1    
     8    4   75 1    
     9    5    6 1    
    10    5   35 1    
    11    5   76 1    
    12    6    7 1    
    13    6   77 1    
    14    6   78 1    
    15    7    8 1    
    16    8    9 1    
    17    8   79 1    
    18    8   80 1    
    19    9   10 ar   
    20    9   14 ar   
    21   10   11 ar   
    22   10   81 1    
    23   11   12 ar   
    24   11   71 1    
    25   12   13 ar   
    26   12   82 1    
    27   13   14 ar   
    28   13   15 1    
    29   14   83 1    
    30   15   16 1    
    31   15   84 1    
    32   15   85 1    
    33   16   17 1    
    34   17   18 1    
    35   17   86 1    
    36   17   87 1    
    37   18   19 1    
    38   18   37 1    
    39   18   88 1    
    40   19   20 am   BACKBONE|DICT|INTERRES
    41   19   89 1    
    42   20   21 2    
    43   20   22 1    
    44   22   23 1    
    45   22   24 1    
    46   22   90 1    
    47   23   91 1    
    48   23   92 1    
    49   23   93 1    
    50   24   25 am   BACKBONE|DICT|INTERRES
    51   24   94 1    
    52   25   26 2    
    53   25   27 1    
    54   27   28 1    
    55   27   29 1    
    56   27   95 1    
    57   28   96 1    
    58   28   97 1    
    59   28   98 1    
    60   29   30 am   BACKBONE|DICT|INTERRES
    61   29   99 1    
    62   30   31 2    
    63   30   32 1    
    64   32   33 1    
    65   32   34 1    
    66   32  100 1    
    67   33  101 1    
    68   33  102 1    
    69   33  103 1    
    70   34   35 am   BACKBONE|DICT|INTERRES
    71   34  104 1    
    72   35   36 2    
    73   37   38 2    
    74   37   39 am   BACKBONE|DICT|INTERRES
    75   39   40 1    
    76   39  105 1    
    77   40   41 1    
    78   40   42 1    
    79   40  106 1    
    80   41  107 1    
    81   41  108 1    
    82   41  109 1    
    83   42   43 2    
    84   42   44 am   BACKBONE|DICT|INTERRES
    85   44   45 1    
    86   44  110 1    
    87   45   46 1    
    88   45   47 1    
    89   45  111 1    
    90   46  112 1    
    91   46  113 1    
    92   46  114 1    
    93   47   48 2    
    94   47   49 am   BACKBONE|DICT|INTERRES
    95   49   50 1    
    96   49  115 1    
    97   50   51 1    
    98   50   52 1    
    99   50  116 1    
   100   51  117 1    
   101   51  118 1    
   102   51  119 1    
   103   52   53 2    
   104   52   54 am   BACKBONE|DICT|INTERRES
   105   54   55 1    
   106   54  120 1    
   107   55   56 1    
   108   55   57 1    
   109   55  121 1    
   110   56  122 1    
   111   56  123 1    
   112   56  124 1    
   113   57   58 2    
   114   57   59 am   BACKBONE|DICT|INTERRES
   115   59   60 1    
   116   59  125 1    
   117   60   61 1    
   118   60   62 1    
   119   60  126 1    
   120   61  127 1    
   121   61  128 1    
   122   61  129 1    
   123   62   63 2    
   124   62   64 am   BACKBONE|DICT|INTERRES
   125   64   65 1    
   126   64  130 1    
   127   65   66 1    
   128   65   69 1    
   129   65  131 1    
   130   66   67 am   BACKBONE|DICT|INTERRES
   131   66   68 2    
   132   67  132 1    
   133   67  133 1    
   134   69   70 1    
   135   69  134 1    
   136   69  135 1    
   137   70   71 1    
   138   71  136 1    
   139   71  137 1    
@<TRIPOS>SUBSTRUCTURE
     1 UNK         1 GROUP             0       ****    0 ROOT    
