@<TRIPOS>MOLECULE
3R137
137   139    1
SMALL
USER_CHARGES


@<TRIPOS>ATOM
      1 CA         25.2510   -5.1094   -3.4685 C.3       0 UNK        -0.2020 
      2 C          24.6452   -5.1127   -2.0674 C.2       0 UNK         0.4855 
      3 O          23.4847   -5.4906   -1.9243 O.2       0 UNK        -0.5197 
      4 N          25.3602   -4.7249   -1.0000 N.am      1 UNK        -0.4892 
      5 CA         26.7156   -4.1619   -0.9299 C.3       1 UNK         0.0835 
      6 C6         27.8116   -5.0592   -1.5760 C.3       12 UNK        -0.0855 
      7 S7         29.3774   -4.9933   -0.6436 S.3       12 UNK        -0.2931 
      8 C8         30.6185   -4.9926   -1.9839 C.3       12 UNK         0.0378 
      9 C9         30.6655   -3.7109   -2.8147 C.ar      12 UNK        -0.0802 
     10 C10        31.0076   -3.7865   -4.1671 C.ar      12 UNK        -0.0944 
     11 C11        31.1032   -2.6300   -4.9460 C.ar      12 UNK        -0.0787 
     12 C12        30.8294   -1.3862   -4.3689 C.ar      12 UNK        -0.0862 
     13 C13        30.4806   -1.2883   -3.0141 C.ar      12 UNK        -0.0733 
     14 C14        30.4168   -2.4560   -2.2480 C.ar      12 UNK        -0.0832 
     15 C15        30.1663    0.0359   -2.3142 C.3       12 UNK         0.0240 
     16 S16        30.4462    1.5475   -3.2992 S.3       12 UNK        -0.2522 
     17 C17        28.7537    2.1276   -3.6517 C.3       12 UNK        -0.0967 
     18 CA         28.2626    1.6913   -5.0540 C.3       5 UNK         0.0660 
     19 N          27.7497    0.3179   -5.0788 N.am      5 UNK        -0.4015 
     20 C          27.5132   -0.3729   -6.2040 C.2       4 UNK         0.4946 
     21 O          27.8164    0.0298   -7.3276 O.2       4 UNK        -0.5353 
     22 CA         26.7560   -1.7038   -6.0643 C.3       4 UNK         0.0277 
     23 CB         27.7143   -2.8730   -5.8020 C.3       4 UNK        -0.1981 
     24 N          25.7380   -1.6487   -5.0129 N.am      4 UNK        -0.4209 
     25 C          24.5642   -1.0128   -5.1529 C.2       3 UNK         0.4942 
     26 O          24.2223   -0.4475   -6.1893 O.2       3 UNK        -0.5208 
     27 CA         23.6192   -0.9583   -3.9380 C.3       3 UNK         0.0250 
     28 CB         22.5993   -2.1059   -3.9983 C.3       3 UNK        -0.1990 
     29 N          24.3076   -0.9844   -2.6474 N.am      3 UNK        -0.4232 
     30 C          25.2054   -0.0796   -2.2323 C.2       2 UNK         0.4993 
     31 O          25.5211    0.9196   -2.8792 O.2       2 UNK        -0.5286 
     32 CA         25.9237   -0.3813   -0.9054 C.3       2 UNK         0.0209 
     33 CB         25.1978    0.3022    0.2636 C.3       2 UNK        -0.1931 
     34 N          26.0756   -1.8163   -0.6189 N.am      2 UNK        -0.4546 
     35 C          26.7097   -2.6963   -1.4101 C.2       1 UNK         0.5154 
     36 O          27.1851   -2.3914   -2.5044 O.2       1 UNK        -0.5181 
     37 C          27.2186    2.6794   -5.6115 C.2       5 UNK         0.5014 
     38 O          27.5901    3.5561   -6.3915 O.2       5 UNK        -0.5248 
     39 N          25.9369    2.5070   -5.2503 N.am      6 UNK        -0.4434 
     40 CA         24.8162    3.2976   -5.7768 C.3       6 UNK         0.0363 
     41 CB         23.5258    2.9453   -5.0217 C.3       6 UNK        -0.1936 
     42 C          24.6201    3.1332   -7.2965 C.2       6 UNK         0.5081 
     43 O          24.3359    4.1163   -7.9805 O.2       6 UNK        -0.5248 
     44 N          24.8183    1.9079   -7.8027 N.am      7 UNK        -0.4718 
     45 CA         24.8360    1.5752   -9.2315 C.3       7 UNK         0.0273 
     46 CB         24.6436    0.0578   -9.3912 C.3       7 UNK        -0.1935 
     47 C          26.1158    2.0295   -9.9628 C.2       7 UNK         0.5018 
     48 O          26.1546    1.9483  -11.1913 O.2       7 UNK        -0.5186 
     49 N          27.1280    2.4858   -9.2099 N.am      8 UNK        -0.4240 
     50 CA         28.4481    2.9405   -9.6533 C.3       8 UNK         0.0235 
     51 CB         28.3341    4.2249  -10.5029 C.3       8 UNK        -0.2000 
     52 C          29.2724    1.8302  -10.3314 C.2       8 UNK         0.4941 
     53 O          29.9080    2.0782  -11.3591 O.2       8 UNK        -0.5273 
     54 N          29.2634    0.6258   -9.7408 N.am      9 UNK        -0.4262 
     55 CA         30.1257   -0.4883  -10.1416 C.3       9 UNK         0.0264 
     56 CB         29.6478   -1.7773   -9.4567 C.3       9 UNK        -0.1955 
     57 C          31.5992   -0.1886   -9.8100 C.2       9 UNK         0.5031 
     58 O          31.8863    0.4040   -8.7656 O.2       9 UNK        -0.5390 
     59 N          32.5058   -0.5958  -10.7067 N.am      10 UNK        -0.4204 
     60 CA         33.9297   -0.2400  -10.7127 C.3       10 UNK         0.0237 
     61 CB         34.4737   -0.4203  -12.1436 C.3       10 UNK        -0.1985 
     62 C          34.7825   -0.9781   -9.6578 C.2       10 UNK         0.4970 
     63 O          35.8175   -1.5532  -10.0012 O.2       10 UNK        -0.4914 
     64 N          34.3524   -0.9322   -8.3931 N.am      11 UNK        -0.4285 
     65 CA         35.1072   -1.4338   -7.2314 C.3       11 UNK         0.1007 
     66 C          36.1530   -0.4227   -6.6769 C.2       11 UNK         0.5703 
     67 N          36.1932    0.8220   -7.1395 N.am      11 UNK        -0.7361 
     68 O          36.9570   -0.7797   -5.8188 O.2       11 UNK        -0.4986 
     69 C69        34.1700   -1.9445   -6.1078 C.3       12 UNK        -0.0947 
     70 S70        33.1670   -3.3654   -6.6534 S.3       12 UNK        -0.2240 
     71 C71        31.4805   -2.7307   -6.4175 C.3       12 UNK         0.0194 
     72 H72        24.4686   -5.2120   -4.2201 H         1 UNK         0.0906 
     73 H73        25.7861   -4.1901   -3.6851 H         1 UNK         0.0906 
     74 H74        25.9335   -5.9495   -3.5899 H         1 UNK         0.0906 
     75 H75        24.8953   -4.7769   -0.1035 H         1 UNK         0.3140 
     76 H76        26.9276   -4.1194    0.1402 H         1 UNK         0.1085 
     77 H77        27.9842   -4.8113   -2.6248 H         1 UNK         0.0836 
     78 H78        27.4956   -6.1034   -1.5673 H         1 UNK         0.0836 
     79 H79        30.4317   -5.8550   -2.6260 H         1 UNK         0.0731 
     80 H80        31.6033   -5.1467   -1.5413 H         1 UNK         0.0731 
     81 H81        31.2160   -4.7475   -4.6175 H         1 UNK         0.1312 
     82 H82        30.8885   -0.5022   -4.9869 H         1 UNK         0.1406 
     83 H83        30.1616   -2.3833   -1.2002 H         1 UNK         0.1631 
     84 H84        30.7906    0.1099   -1.4226 H         1 UNK         0.0717 
     85 H85        29.1362    0.0056   -1.9601 H         1 UNK         0.0717 
     86 H86        28.0614    1.8176   -2.8680 H         1 UNK         0.0934 
     87 H87        28.7983    3.2168   -3.5813 H         1 UNK         0.0934 
     88 H88        29.1129    1.7333   -5.7392 H         1 UNK         0.0739 
     89 H89        27.4616   -0.0787   -4.1961 H         1 UNK         0.3093 
     90 H90        26.2567   -1.8966   -7.0163 H         1 UNK         0.0818 
     91 H91        28.4586   -2.9471   -6.5939 H         1 UNK         0.0819 
     92 H92        27.1830   -3.8238   -5.7718 H         1 UNK         0.0819 
     93 H93        28.2471   -2.7576   -4.8585 H         1 UNK         0.0819 
     94 H94        25.9980   -2.0298   -4.1092 H         1 UNK         0.3041 
     95 H95        23.0699   -0.0173   -3.9910 H         1 UNK         0.0784 
     96 H96        22.0463   -2.0858   -4.9387 H         1 UNK         0.0793 
     97 H97        23.0801   -3.0813   -3.9256 H         1 UNK         0.0793 
     98 H98        21.8676   -2.0310   -3.1937 H         1 UNK         0.0793 
     99 H99        24.1130   -1.7684   -2.0422 H         1 UNK         0.3024 
    100 H100       26.9248    0.0467   -0.9818 H         1 UNK         0.1171 
    101 H101       25.7509    0.1883    1.1962 H         1 UNK         0.0786 
    102 H102       25.0897    1.3730    0.0833 H         1 UNK         0.0786 
    103 H103       24.1972   -0.1055    0.4133 H         1 UNK         0.0786 
    104 H104       25.6780   -2.1446    0.2499 H         1 UNK         0.2977 
    105 H105       25.7193    1.8127   -4.5383 H         1 UNK         0.3127 
    106 H106       25.0433    4.3485   -5.5850 H         1 UNK         0.0770 
    107 H107       23.1955    1.9313   -5.2428 H         1 UNK         0.0814 
    108 H108       22.7155    3.6170   -5.3080 H         1 UNK         0.0814 
    109 H109       23.6553    3.0322   -3.9427 H         1 UNK         0.0814 
    110 H110       24.9501    1.1325   -7.1596 H         1 UNK         0.2983 
    111 H111       23.9947    2.0797   -9.7116 H         1 UNK         0.0947 
    112 H112       24.6046   -0.2256  -10.4438 H         1 UNK         0.0806 
    113 H113       23.7125   -0.2753   -8.9325 H         1 UNK         0.0806 
    114 H114       25.4617   -0.4993   -8.9334 H         1 UNK         0.0806 
    115 H115       26.9882    2.5051   -8.2070 H         1 UNK         0.3000 
    116 H116       28.9951    3.2001   -8.7458 H         1 UNK         0.0850 
    117 H117       29.3200    4.6378  -10.7198 H         1 UNK         0.0810 
    118 H118       27.7689    4.9961   -9.9795 H         1 UNK         0.0810 
    119 H119       27.8435    4.0381  -11.4585 H         1 UNK         0.0810 
    120 H120       28.7268    0.4980   -8.8838 H         1 UNK         0.3040 
    121 H121       30.0290   -0.6185  -11.2217 H         1 UNK         0.0766 
    122 H122       28.6435   -2.0474   -9.7836 H         1 UNK         0.0812 
    123 H123       29.6205   -1.6654   -8.3744 H         1 UNK         0.0812 
    124 H124       30.3040   -2.6176   -9.6872 H         1 UNK         0.0812 
    125 H125       32.1818   -1.1208  -11.5066 H         1 UNK         0.3205 
    126 H126       34.0051    0.8228  -10.4727 H         1 UNK         0.0754 
    127 H127       35.5126   -0.0948  -12.2139 H         1 UNK         0.0769 
    128 H128       33.9062    0.1715  -12.8623 H         1 UNK         0.0769 
    129 H129       34.4357   -1.4631  -12.4614 H         1 UNK         0.0769 
    130 H130       33.4831   -0.4393   -8.2054 H         1 UNK         0.2981 
    131 H131       35.6961   -2.2923   -7.5602 H         1 UNK         0.0541 
    132 H132       35.5386    1.1304   -7.8396 H         1 UNK         0.3459 
    133 H133       36.8814    1.4613   -6.7742 H         1 UNK         0.3459 
    134 H134       34.7452   -2.2760   -5.2415 H         1 UNK         0.0612 
    135 H135       33.5255   -1.1381   -5.7541 H         1 UNK         0.0612 
    136 H136       30.7849   -3.4024   -6.9210 H         1 UNK         0.0624 
    137 H137       31.3965   -1.7613   -6.9098 H         1 UNK         0.0624 
@<TRIPOS>BOND
     1    1    2 1    
     2    1   72 1    
     3    1   73 1    
     4    1   74 1    
     5    2    3 2    
     6    2    4 am   BACKBONE|DICT|INTERRES
     7    4    5 1    
     8    4   75 1    
     9    5    6 1    
    10    5   35 1    
    11    5   76 1    
    12    6    7 1    
    13    6   77 1    
    14    6   78 1    
    15    7    8 1    
    16    8    9 1    
    17    8   79 1    
    18    8   80 1    
    19    9   10 ar   
    20    9   14 ar   
    21   10   11 ar   
    22   10   81 1    
    23   11   12 ar   
    24   11   71 1    
    25   12   13 ar   
    26   12   82 1    
    27   13   14 ar   
    28   13   15 1    
    29   14   83 1    
    30   15   16 1    
    31   15   84 1    
    32   15   85 1    
    33   16   17 1    
    34   17   18 1    
    35   17   86 1    
    36   17   87 1    
    37   18   19 1    
    38   18   37 1    
    39   18   88 1    
    40   19   20 am   BACKBONE|DICT|INTERRES
    41   19   89 1    
    42   20   21 2    
    43   20   22 1    
    44   22   23 1    
    45   22   24 1    
    46   22   90 1    
    47   23   91 1    
    48   23   92 1    
    49   23   93 1    
    50   24   25 am   BACKBONE|DICT|INTERRES
    51   24   94 1    
    52   25   26 2    
    53   25   27 1    
    54   27   28 1    
    55   27   29 1    
    56   27   95 1    
    57   28   96 1    
    58   28   97 1    
    59   28   98 1    
    60   29   30 am   BACKBONE|DICT|INTERRES
    61   29   99 1    
    62   30   31 2    
    63   30   32 1    
    64   32   33 1    
    65   32   34 1    
    66   32  100 1    
    67   33  101 1    
    68   33  102 1    
    69   33  103 1    
    70   34   35 am   BACKBONE|DICT|INTERRES
    71   34  104 1    
    72   35   36 2    
    73   37   38 2    
    74   37   39 am   BACKBONE|DICT|INTERRES
    75   39   40 1    
    76   39  105 1    
    77   40   41 1    
    78   40   42 1    
    79   40  106 1    
    80   41  107 1    
    81   41  108 1    
    82   41  109 1    
    83   42   43 2    
    84   42   44 am   BACKBONE|DICT|INTERRES
    85   44   45 1    
    86   44  110 1    
    87   45   46 1    
    88   45   47 1    
    89   45  111 1    
    90   46  112 1    
    91   46  113 1    
    92   46  114 1    
    93   47   48 2    
    94   47   49 am   BACKBONE|DICT|INTERRES
    95   49   50 1    
    96   49  115 1    
    97   50   51 1    
    98   50   52 1    
    99   50  116 1    
   100   51  117 1    
   101   51  118 1    
   102   51  119 1    
   103   52   53 2    
   104   52   54 am   BACKBONE|DICT|INTERRES
   105   54   55 1    
   106   54  120 1    
   107   55   56 1    
   108   55   57 1    
   109   55  121 1    
   110   56  122 1    
   111   56  123 1    
   112   56  124 1    
   113   57   58 2    
   114   57   59 am   BACKBONE|DICT|INTERRES
   115   59   60 1    
   116   59  125 1    
   117   60   61 1    
   118   60   62 1    
   119   60  126 1    
   120   61  127 1    
   121   61  128 1    
   122   61  129 1    
   123   62   63 2    
   124   62   64 am   BACKBONE|DICT|INTERRES
   125   64   65 1    
   126   64  130 1    
   127   65   66 1    
   128   65   69 1    
   129   65  131 1    
   130   66   67 am   BACKBONE|DICT|INTERRES
   131   66   68 2    
   132   67  132 1    
   133   67  133 1    
   134   69   70 1    
   135   69  134 1    
   136   69  135 1    
   137   70   71 1    
   138   71  136 1    
   139   71  137 1    
@<TRIPOS>SUBSTRUCTURE
     1 UNK         1 GROUP             0       ****    0 ROOT    
