@<TRIPOS>MOLECULE
3R137
137   139    1
SMALL
USER_CHARGES


@<TRIPOS>ATOM
      1 CA         25.6802   -7.3520   -3.5229 C.3       0 UNK        -0.2020 
      2 C          26.3565   -6.8071   -4.7795 C.2       0 UNK         0.4855 
      3 O          26.2973   -7.4576   -5.8212 O.2       0 UNK        -0.5197 
      4 N          27.0225   -5.6439   -4.7417 N.am      1 UNK        -0.4892 
      5 CA         27.1494   -4.7089   -3.6141 C.3       1 UNK         0.0835 
      6 C6         28.1619   -3.5766   -3.9259 C.3       12 UNK        -0.0855 
      7 S7         29.8098   -4.2096   -4.3930 S.3       12 UNK        -0.2931 
      8 C8         30.8679   -3.5737   -3.0532 C.3       12 UNK         0.0378 
      9 C9         30.9719   -2.0545   -3.0754 C.ar      12 UNK        -0.0802 
     10 C10        31.6222   -1.4107   -4.1322 C.ar      12 UNK        -0.0944 
     11 C11        31.7208   -0.0169   -4.1638 C.ar      12 UNK        -0.0787 
     12 C12        31.1804    0.7337   -3.1179 C.ar      12 UNK        -0.0862 
     13 C13        30.5092    0.1038   -2.0657 C.ar      12 UNK        -0.0733 
     14 C14        30.4154   -1.2912   -2.0444 C.ar      12 UNK        -0.0832 
     15 C15        29.8617    0.9338   -0.9669 C.3       12 UNK         0.0240 
     16 S16        28.6246    2.0980   -1.6271 S.3       12 UNK        -0.2522 
     17 C17        27.4330    0.9801   -2.4485 C.3       12 UNK        -0.0967 
     18 CA         27.5389    0.9290   -3.9978 C.3       5 UNK         0.0660 
     19 N          26.5990   -0.0487   -4.5581 N.am      5 UNK        -0.4015 
     20 C          26.4977   -0.3696   -5.8601 C.2       4 UNK         0.4946 
     21 O          27.3278   -0.0357   -6.7077 O.2       4 UNK        -0.5353 
     22 CA         25.2296   -1.1191   -6.3232 C.3       4 UNK         0.0277 
     23 CB         25.5584   -2.4813   -6.9516 C.3       4 UNK        -0.1981 
     24 N          24.2170   -1.2870   -5.2761 N.am      4 UNK        -0.4209 
     25 C          23.4639   -0.2882   -4.7875 C.2       3 UNK         0.4942 
     26 O          23.5482    0.8749   -5.1833 O.2       3 UNK        -0.5208 
     27 CA         22.5057   -0.6139   -3.6255 C.3       3 UNK         0.0250 
     28 CB         21.0944   -0.9016   -4.1611 C.3       3 UNK        -0.1990 
     29 N          22.9413   -1.7309   -2.7797 N.am      3 UNK        -0.4232 
     30 C          24.1031   -1.7875   -2.1133 C.2       2 UNK         0.4993 
     31 O          24.9372   -0.8820   -2.1272 O.2       2 UNK        -0.5286 
     32 CA         24.4408   -3.0920   -1.3659 C.3       2 UNK         0.0209 
     33 CB         23.2692   -4.0981   -1.2767 C.3       2 UNK        -0.1931 
     34 N          25.6282   -3.7364   -1.9462 N.am      2 UNK        -0.4546 
     35 C          25.7850   -4.0991   -3.2286 C.2       1 UNK         0.5154 
     36 O          24.9162   -3.9488   -4.0926 O.2       1 UNK        -0.5181 
     37 C          27.3331    2.3213   -4.6381 C.2       5 UNK         0.5014 
     38 O          28.3110    2.9587   -5.0302 O.2       5 UNK        -0.5248 
     39 N          26.0661    2.7438   -4.7892 N.am      6 UNK        -0.4434 
     40 CA         25.6880    4.0155   -5.4155 C.3       6 UNK         0.0363 
     41 CB         24.2103    4.3145   -5.1181 C.3       6 UNK        -0.1936 
     42 C          25.9508    4.0447   -6.9316 C.2       6 UNK         0.5081 
     43 O          26.2008    5.1173   -7.4813 O.2       6 UNK        -0.5248 
     44 N          25.9141    2.8697   -7.5746 N.am      7 UNK        -0.4718 
     45 CA         26.2770    2.6769   -8.9814 C.3       7 UNK         0.0273 
     46 CB         25.5944    1.4004   -9.5024 C.3       7 UNK        -0.1935 
     47 C          27.8002    2.5990   -9.2049 C.2       7 UNK         0.5018 
     48 O          28.2321    2.6531  -10.3568 O.2       7 UNK        -0.5186 
     49 N          28.5739    2.4552   -8.1166 N.am      8 UNK        -0.4240 
     50 CA         30.0249    2.2523   -8.0634 C.3       8 UNK         0.0235 
     51 CB         30.7801    3.5105   -8.5410 C.3       8 UNK        -0.2000 
     52 C          30.4729    0.9665   -8.7848 C.2       8 UNK         0.4941 
     53 O          31.4965    0.9730   -9.4746 O.2       8 UNK        -0.5273 
     54 N          29.7006   -0.1178   -8.6112 N.am      9 UNK        -0.4262 
     55 CA         29.9829   -1.4375   -9.1828 C.3       9 UNK         0.0264 
     56 CB         28.8258   -2.3919   -8.8604 C.3       9 UNK        -0.1955 
     57 C          31.3142   -2.0067   -8.6689 C.2       9 UNK         0.5031 
     58 O          31.5962   -1.9011   -7.4763 O.2       9 UNK        -0.5390 
     59 N          32.1231   -2.5597   -9.5811 N.am      10 UNK        -0.4204 
     60 CA         33.4966   -3.0548   -9.3937 C.3       10 UNK         0.0237 
     61 CB         33.5739   -4.1660   -8.3265 C.3       10 UNK        -0.1985 
     62 C          34.5447   -1.9532   -9.1327 C.2       10 UNK         0.4970 
     63 O          35.6655   -2.0845   -9.6268 O.2       10 UNK        -0.4914 
     64 N          34.1833   -0.8940   -8.3960 N.am      11 UNK        -0.4285 
     65 CA         35.0198    0.2967   -8.1732 C.3       11 UNK         0.1007 
     66 C          35.2788    1.1055   -9.4739 C.2       11 UNK         0.5703 
     67 N          34.2695    1.3184  -10.3107 N.am      11 UNK        -0.7361 
     68 O          36.4011    1.5387   -9.7240 O.2       11 UNK        -0.4986 
     69 C69        34.4605    1.2351   -7.0721 C.3       12 UNK        -0.0947 
     70 S70        34.1353    0.3999   -5.4834 S.3       12 UNK        -0.2240 
     71 C71        32.3449    0.6813   -5.3597 C.3       12 UNK         0.0194 
     72 H72        25.4877   -8.4193   -3.6309 H         1 UNK         0.0906 
     73 H73        26.3002   -7.2239   -2.6370 H         1 UNK         0.0906 
     74 H74        24.7227   -6.8579   -3.3595 H         1 UNK         0.0906 
     75 H75        27.4733   -5.3323   -5.5893 H         1 UNK         0.3140 
     76 H76        27.5282   -5.2695   -2.7575 H         1 UNK         0.1085 
     77 H77        28.2595   -2.9088   -3.0686 H         1 UNK         0.0836 
     78 H78        27.8108   -2.9495   -4.7457 H         1 UNK         0.0836 
     79 H79        31.8666   -3.9987   -3.1632 H         1 UNK         0.0731 
     80 H80        30.4880   -3.9295   -2.0942 H         1 UNK         0.0731 
     81 H81        32.0344   -1.9954   -4.9433 H         1 UNK         0.1312 
     82 H82        31.2400    1.8135   -3.1415 H         1 UNK         0.1406 
     83 H83        29.9008   -1.7825   -1.2299 H         1 UNK         0.1631 
     84 H84        30.6352    1.4977   -0.4440 H         1 UNK         0.0717 
     85 H85        29.3853    0.2966   -0.2201 H         1 UNK         0.0717 
     86 H86        27.5536   -0.0236   -2.0379 H         1 UNK         0.0934 
     87 H87        26.4327    1.2988   -2.1501 H         1 UNK         0.0934 
     88 H88        28.5421    0.5906   -4.2639 H         1 UNK         0.0739 
     89 H89        25.8882   -0.3865   -3.9178 H         1 UNK         0.3093 
     90 H90        24.7794   -0.5061   -7.1065 H         1 UNK         0.0818 
     91 H91        26.1519   -2.3540   -7.8545 H         1 UNK         0.0819 
     92 H92        24.6530   -3.0152   -7.2406 H         1 UNK         0.0819 
     93 H93        26.1217   -3.1237   -6.2782 H         1 UNK         0.0819 
     94 H94        24.1417   -2.2134   -4.8654 H         1 UNK         0.3041 
     95 H95        22.4569    0.2739   -2.9916 H         1 UNK         0.0784 
     96 H96        20.7339   -0.0744   -4.7746 H         1 UNK         0.0793 
     97 H97        21.0724   -1.7998   -4.7797 H         1 UNK         0.0793 
     98 H98        20.3797   -1.0341   -3.3486 H         1 UNK         0.0793 
     99 H99        22.3333   -2.5364   -2.7434 H         1 UNK         0.3024 
    100 H100       24.7027   -2.7950   -0.3488 H         1 UNK         0.1171 
    101 H101       23.5478   -4.9642   -0.6761 H         1 UNK         0.0786 
    102 H102       22.3979   -3.6495   -0.7972 H         1 UNK         0.0786 
    103 H103       22.9600   -4.4682   -2.2550 H         1 UNK         0.0786 
    104 H104       26.4039   -3.8598   -1.3099 H         1 UNK         0.2977 
    105 H105       25.3041    2.1391   -4.5067 H         1 UNK         0.3127 
    106 H106       26.2924    4.8050   -4.9632 H         1 UNK         0.0770 
    107 H107       23.5496    3.5644   -5.5544 H         1 UNK         0.0814 
    108 H108       23.9190    5.2819   -5.5295 H         1 UNK         0.0814 
    109 H109       24.0187    4.3487   -4.0455 H         1 UNK         0.0814 
    110 H110       25.6980    2.0397   -7.0420 H         1 UNK         0.2983 
    111 H111       25.9041    3.5250   -9.5603 H         1 UNK         0.0947 
    112 H112       25.7599    1.2829  -10.5742 H         1 UNK         0.0806 
    113 H113       24.5163    1.4293   -9.3438 H         1 UNK         0.0806 
    114 H114       25.9851    0.5053   -9.0180 H         1 UNK         0.0806 
    115 H115       28.1079    2.4172   -7.2185 H         1 UNK         0.3000 
    116 H116       30.2638    2.1073   -7.0094 H         1 UNK         0.0850 
    117 H117       31.8539    3.4060   -8.3815 H         1 UNK         0.0810 
    118 H118       30.4566    4.3970   -7.9957 H         1 UNK         0.0810 
    119 H119       30.6275    3.6948   -9.6048 H         1 UNK         0.0810 
    120 H120       28.8962   -0.0509   -7.9934 H         1 UNK         0.3040 
    121 H121       30.0430   -1.3194  -10.2667 H         1 UNK         0.0766 
    122 H122       27.8981   -2.0402   -9.3107 H         1 UNK         0.0812 
    123 H123       28.6721   -2.4850   -7.7839 H         1 UNK         0.0812 
    124 H124       29.0177   -3.3917   -9.2520 H         1 UNK         0.0812 
    125 H125       31.8011   -2.5706  -10.5396 H         1 UNK         0.3205 
    126 H126       33.7665   -3.5097  -10.3483 H         1 UNK         0.0754 
    127 H127       34.5674   -4.6158   -8.3085 H         1 UNK         0.0769 
    128 H128       32.8600   -4.9637   -8.5313 H         1 UNK         0.0769 
    129 H129       33.3759   -3.7877   -7.3232 H         1 UNK         0.0769 
    130 H130       33.2556   -0.8904   -7.9867 H         1 UNK         0.2981 
    131 H131       35.9901   -0.0633   -7.8255 H         1 UNK         0.0541 
    132 H132       34.4315    1.8386  -11.1575 H         1 UNK         0.3459 
    133 H133       33.3246    1.0340  -10.0648 H         1 UNK         0.3459 
    134 H134       35.1685    2.0419   -6.8740 H         1 UNK         0.0612 
    135 H135       33.5472    1.7202   -7.4215 H         1 UNK         0.0612 
    136 H136       32.1603    1.7559   -5.3175 H         1 UNK         0.0624 
    137 H137       31.8604    0.3229   -6.2657 H         1 UNK         0.0624 
@<TRIPOS>BOND
     1    1    2 1    
     2    1   72 1    
     3    1   73 1    
     4    1   74 1    
     5    2    3 2    
     6    2    4 am   BACKBONE|DICT|INTERRES
     7    4    5 1    
     8    4   75 1    
     9    5    6 1    
    10    5   35 1    
    11    5   76 1    
    12    6    7 1    
    13    6   77 1    
    14    6   78 1    
    15    7    8 1    
    16    8    9 1    
    17    8   79 1    
    18    8   80 1    
    19    9   10 ar   
    20    9   14 ar   
    21   10   11 ar   
    22   10   81 1    
    23   11   12 ar   
    24   11   71 1    
    25   12   13 ar   
    26   12   82 1    
    27   13   14 ar   
    28   13   15 1    
    29   14   83 1    
    30   15   16 1    
    31   15   84 1    
    32   15   85 1    
    33   16   17 1    
    34   17   18 1    
    35   17   86 1    
    36   17   87 1    
    37   18   19 1    
    38   18   37 1    
    39   18   88 1    
    40   19   20 am   BACKBONE|DICT|INTERRES
    41   19   89 1    
    42   20   21 2    
    43   20   22 1    
    44   22   23 1    
    45   22   24 1    
    46   22   90 1    
    47   23   91 1    
    48   23   92 1    
    49   23   93 1    
    50   24   25 am   BACKBONE|DICT|INTERRES
    51   24   94 1    
    52   25   26 2    
    53   25   27 1    
    54   27   28 1    
    55   27   29 1    
    56   27   95 1    
    57   28   96 1    
    58   28   97 1    
    59   28   98 1    
    60   29   30 am   BACKBONE|DICT|INTERRES
    61   29   99 1    
    62   30   31 2    
    63   30   32 1    
    64   32   33 1    
    65   32   34 1    
    66   32  100 1    
    67   33  101 1    
    68   33  102 1    
    69   33  103 1    
    70   34   35 am   BACKBONE|DICT|INTERRES
    71   34  104 1    
    72   35   36 2    
    73   37   38 2    
    74   37   39 am   BACKBONE|DICT|INTERRES
    75   39   40 1    
    76   39  105 1    
    77   40   41 1    
    78   40   42 1    
    79   40  106 1    
    80   41  107 1    
    81   41  108 1    
    82   41  109 1    
    83   42   43 2    
    84   42   44 am   BACKBONE|DICT|INTERRES
    85   44   45 1    
    86   44  110 1    
    87   45   46 1    
    88   45   47 1    
    89   45  111 1    
    90   46  112 1    
    91   46  113 1    
    92   46  114 1    
    93   47   48 2    
    94   47   49 am   BACKBONE|DICT|INTERRES
    95   49   50 1    
    96   49  115 1    
    97   50   51 1    
    98   50   52 1    
    99   50  116 1    
   100   51  117 1    
   101   51  118 1    
   102   51  119 1    
   103   52   53 2    
   104   52   54 am   BACKBONE|DICT|INTERRES
   105   54   55 1    
   106   54  120 1    
   107   55   56 1    
   108   55   57 1    
   109   55  121 1    
   110   56  122 1    
   111   56  123 1    
   112   56  124 1    
   113   57   58 2    
   114   57   59 am   BACKBONE|DICT|INTERRES
   115   59   60 1    
   116   59  125 1    
   117   60   61 1    
   118   60   62 1    
   119   60  126 1    
   120   61  127 1    
   121   61  128 1    
   122   61  129 1    
   123   62   63 2    
   124   62   64 am   BACKBONE|DICT|INTERRES
   125   64   65 1    
   126   64  130 1    
   127   65   66 1    
   128   65   69 1    
   129   65  131 1    
   130   66   67 am   BACKBONE|DICT|INTERRES
   131   66   68 2    
   132   67  132 1    
   133   67  133 1    
   134   69   70 1    
   135   69  134 1    
   136   69  135 1    
   137   70   71 1    
   138   71  136 1    
   139   71  137 1    
@<TRIPOS>SUBSTRUCTURE
     1 UNK         1 GROUP             0       ****    0 ROOT    
