@<TRIPOS>MOLECULE
3R137
137   139    1
SMALL
USER_CHARGES


@<TRIPOS>ATOM
      1 CA         27.5457    1.5479   -0.3285 C.3       0 UNK        -0.2020 
      2 C          27.5178    0.1083   -0.8167 C.2       0 UNK         0.4855 
      3 O          27.0780   -0.1496   -1.9351 O.2       0 UNK        -0.5197 
      4 N          27.9806   -0.8397    0.0064 N.am      1 UNK        -0.4892 
      5 CA         28.0066   -2.2734   -0.3008 C.3       1 UNK         0.0835 
      6 C6         28.7892   -3.0452    0.7900 C.3       12 UNK        -0.0855 
      7 S7         29.2358   -4.7455    0.3084 S.3       12 UNK        -0.2931 
      8 C8         30.8650   -4.4962   -0.4763 C.3       12 UNK         0.0378 
      9 C9         30.7506   -3.8977   -1.8733 C.ar      12 UNK        -0.0802 
     10 C10        31.4465   -2.7311   -2.2126 C.ar      12 UNK        -0.0944 
     11 C11        31.3600   -2.2059   -3.5075 C.ar      12 UNK        -0.0787 
     12 C12        30.5612   -2.8448   -4.4585 C.ar      12 UNK        -0.0862 
     13 C13        29.8552   -4.0034   -4.1272 C.ar      12 UNK        -0.0733 
     14 C14        29.9613   -4.5302   -2.8387 C.ar      12 UNK        -0.0832 
     15 C15        28.9765   -4.6853   -5.1594 C.3       12 UNK         0.0240 
     16 S16        27.5328   -3.6531   -5.5474 S.3       12 UNK        -0.2522 
     17 C17        27.8368   -3.2533   -7.3029 C.3       12 UNK        -0.0967 
     18 CA         27.1884   -1.9253   -7.7602 C.3       5 UNK         0.0660 
     19 N          25.8037   -1.8054   -7.3035 N.am      5 UNK        -0.4015 
     20 C          24.8937   -0.9742   -7.8198 C.2       4 UNK         0.4946 
     21 O          25.1138   -0.2223   -8.7687 O.2       4 UNK        -0.5353 
     22 CA         23.5219   -0.9547   -7.1266 C.3       4 UNK         0.0277 
     23 CB         22.6594   -2.1390   -7.5907 C.3       4 UNK        -0.1981 
     24 N          23.6111   -0.9537   -5.6613 N.am      4 UNK        -0.4209 
     25 C          24.1911    0.0088   -4.9336 C.2       3 UNK         0.4942 
     26 O          24.7847    0.9675   -5.4257 O.2       3 UNK        -0.5208 
     27 CA         24.1080   -0.1077   -3.4057 C.3       3 UNK         0.0250 
     28 CB         22.6810    0.1650   -2.8904 C.3       3 UNK        -0.1990 
     29 N          24.6655   -1.3510   -2.8587 N.am      3 UNK        -0.4232 
     30 C          24.1920   -2.6038   -2.9440 C.2       2 UNK         0.4993 
     31 O          23.1984   -2.9059   -3.6080 O.2       2 UNK        -0.5286 
     32 CA         24.9389   -3.7065   -2.1618 C.3       2 UNK         0.0209 
     33 CB         25.0470   -5.0135   -2.9677 C.3       2 UNK        -0.1931 
     34 N          26.2788   -3.2881   -1.7302 N.am      2 UNK        -0.4546 
     35 C          26.5727   -2.8116   -0.5113 C.2       1 UNK         0.5154 
     36 O          25.7582   -2.7377    0.4120 O.2       1 UNK        -0.5181 
     37 C          28.0463   -0.6929   -7.4048 C.2       5 UNK         0.5014 
     38 O          28.9391   -0.3450   -8.1789 O.2       5 UNK        -0.5248 
     39 N          27.7556   -0.0262   -6.2781 N.am      6 UNK        -0.4434 
     40 CA         28.3922    1.2392   -5.9045 C.3       6 UNK         0.0363 
     41 CB         28.1824    1.5272   -4.4133 C.3       6 UNK        -0.1936 
     42 C          27.8997    2.4058   -6.7739 C.2       6 UNK         0.5081 
     43 O          28.7158    3.2280   -7.1862 O.2       6 UNK        -0.5248 
     44 N          26.5980    2.4290   -7.0966 N.am      7 UNK        -0.4718 
     45 CA         25.9935    3.3673   -8.0499 C.3       7 UNK         0.0273 
     46 CB         24.4634    3.2289   -8.0151 C.3       7 UNK        -0.1935 
     47 C          26.5321    3.1897   -9.4820 C.2       7 UNK         0.5018 
     48 O          26.7402    4.1836  -10.1780 O.2       7 UNK        -0.5186 
     49 N          26.8006    1.9354   -9.8731 N.am      8 UNK        -0.4240 
     50 CA         27.4945    1.5663  -11.1119 C.3       8 UNK         0.0235 
     51 CB         27.2101    0.0874  -11.4224 C.3       8 UNK        -0.2000 
     52 C          29.0165    1.8253  -11.0779 C.2       8 UNK         0.4941 
     53 O          29.6638    1.6707  -12.1144 O.2       8 UNK        -0.5273 
     54 N          29.5583    2.2046   -9.9100 N.am      9 UNK        -0.4262 
     55 CA         30.9622    2.5116   -9.6222 C.3       9 UNK         0.0264 
     56 CB         31.4243    3.7629  -10.3996 C.3       9 UNK        -0.1955 
     57 C          31.9055    1.3071   -9.7967 C.2       9 UNK         0.5031 
     58 O          33.0260    1.4770  -10.2821 O.2       9 UNK        -0.5390 
     59 N          31.4671    0.1152   -9.3608 N.am      10 UNK        -0.4204 
     60 CA         32.2466   -1.1304   -9.4103 C.3       10 UNK         0.0237 
     61 CB         31.3766   -2.3029   -8.9306 C.3       10 UNK        -0.1985 
     62 C          33.5616   -1.0811   -8.6084 C.2       10 UNK         0.4970 
     63 O          34.5352   -1.7180   -9.0127 O.2       10 UNK        -0.4914 
     64 N          33.5695   -0.3133   -7.5114 N.am      11 UNK        -0.4285 
     65 CA         34.7610   -0.0129   -6.7012 C.3       11 UNK         0.1007 
     66 C          35.5931    1.1951   -7.2284 C.2       11 UNK         0.5703 
     67 N          35.2401    1.8323   -8.3396 N.am      11 UNK        -0.7361 
     68 O          36.5991    1.5570   -6.6224 O.2       11 UNK        -0.4986 
     69 C69        34.4063    0.1379   -5.1964 C.3       12 UNK        -0.0947 
     70 S70        33.8006   -1.4282   -4.4855 S.3       12 UNK        -0.2240 
     71 C71        32.1446   -0.9642   -3.8984 C.3       12 UNK         0.0194 
     72 H72        28.1399    2.1599   -1.0066 H         1 UNK         0.0906 
     73 H73        27.9733    1.6328    0.6702 H         1 UNK         0.0906 
     74 H74        26.5344    1.9529   -0.3022 H         1 UNK         0.0906 
     75 H75        28.2996   -0.5809    0.9292 H         1 UNK         0.3140 
     76 H76        28.5492   -2.3718   -1.2427 H         1 UNK         0.1085 
     77 H77        28.2163   -3.0871    1.7185 H         1 UNK         0.0836 
     78 H78        29.7090   -2.5126    1.0376 H         1 UNK         0.0836 
     79 H79        31.4930   -3.8798    0.1688 H         1 UNK         0.0731 
     80 H80        31.3650   -5.4626   -0.5547 H         1 UNK         0.0731 
     81 H81        32.0702   -2.2404   -1.4779 H         1 UNK         0.1312 
     82 H82        30.4872   -2.4405   -5.4586 H         1 UNK         0.1406 
     83 H83        29.4240   -5.4330   -2.5798 H         1 UNK         0.1631 
     84 H84        28.6213   -5.6487   -4.7905 H         1 UNK         0.0717 
     85 H85        29.5620   -4.9025   -6.0535 H         1 UNK         0.0717 
     86 H86        28.9075   -3.2503   -7.5122 H         1 UNK         0.0934 
     87 H87        27.4288   -4.0739   -7.8955 H         1 UNK         0.0934 
     88 H88        27.1568   -1.9572   -8.8508 H         1 UNK         0.0739 
     89 H89        25.5470   -2.3879   -6.5193 H         1 UNK         0.3093 
     90 H90        23.0210   -0.0313   -7.4250 H         1 UNK         0.0818 
     91 H91        21.6484   -2.0736   -7.1881 H         1 UNK         0.0819 
     92 H92        22.5729   -2.1567   -8.6781 H         1 UNK         0.0819 
     93 H93        23.0815   -3.0957   -7.2803 H         1 UNK         0.0819 
     94 H94        23.1898   -1.7290   -5.1553 H         1 UNK         0.3041 
     95 H95        24.7415    0.6867   -3.0076 H         1 UNK         0.0784 
     96 H96        22.3256    1.1382   -3.2318 H         1 UNK         0.0793 
     97 H97        21.9650   -0.5796   -3.2389 H         1 UNK         0.0793 
     98 H98        22.6504    0.1739   -1.8008 H         1 UNK         0.0793 
     99 H99        25.5385   -1.2082   -2.3560 H         1 UNK         0.3024 
    100 H100       24.3241   -3.9199   -1.2845 H         1 UNK         0.1171 
    101 H101       24.0586   -5.4159   -3.1934 H         1 UNK         0.0786 
    102 H102       25.5855   -5.7803   -2.4105 H         1 UNK         0.0786 
    103 H103       25.5582   -4.8673   -3.9170 H         1 UNK         0.0786 
    104 H104       26.9960   -3.2859   -2.4430 H         1 UNK         0.2977 
    105 H105       26.9950   -0.3470   -5.6973 H         1 UNK         0.3127 
    106 H106       29.4677    1.1413   -6.0700 H         1 UNK         0.0770 
    107 H107       27.1257    1.5623   -4.1472 H         1 UNK         0.0814 
    108 H108       28.6222    2.4852   -4.1331 H         1 UNK         0.0814 
    109 H109       28.6619    0.7631   -3.8021 H         1 UNK         0.0814 
    110 H110       25.9727    1.7587   -6.6537 H         1 UNK         0.2983 
    111 H111       26.2512    4.3782   -7.7266 H         1 UNK         0.0947 
    112 H112       23.9915    3.9475   -8.6864 H         1 UNK         0.0806 
    113 H113       24.0720    3.4129   -7.0144 H         1 UNK         0.0806 
    114 H114       24.1391    2.2344   -8.3215 H         1 UNK         0.0806 
    115 H115       26.5004    1.1726   -9.2736 H         1 UNK         0.3000 
    116 H116       27.0827    2.1694  -11.9238 H         1 UNK         0.0850 
    117 H117       27.6197   -0.1938  -12.3934 H         1 UNK         0.0810 
    118 H118       26.1396   -0.1169  -11.4509 H         1 UNK         0.0810 
    119 H119       27.6597   -0.5704  -10.6792 H         1 UNK         0.0810 
    120 H120       28.9379    2.2998   -9.1151 H         1 UNK         0.3040 
    121 H121       31.0014    2.7609   -8.5612 H         1 UNK         0.0766 
    122 H122       31.4736    3.5783  -11.4731 H         1 UNK         0.0812 
    123 H123       30.7504    4.6033  -10.2333 H         1 UNK         0.0812 
    124 H124       32.4181    4.0777  -10.0789 H         1 UNK         0.0812 
    125 H125       30.5251    0.0460   -8.9737 H         1 UNK         0.3205 
    126 H126       32.5091   -1.3059  -10.4555 H         1 UNK         0.0754 
    127 H127       31.9146   -3.2485   -9.0105 H         1 UNK         0.0769 
    128 H128       30.4689   -2.3944   -9.5276 H         1 UNK         0.0769 
    129 H129       31.0840   -2.1810   -7.8874 H         1 UNK         0.0769 
    130 H130       32.7260    0.1792   -7.2623 H         1 UNK         0.2981 
    131 H131       35.4420   -0.8627   -6.7775 H         1 UNK         0.0541 
    132 H132       34.4439    1.5409   -8.8961 H         1 UNK         0.3459 
    133 H133       35.8058    2.6041   -8.6542 H         1 UNK         0.3459 
    134 H134       33.6715    0.9314   -5.0505 H         1 UNK         0.0612 
    135 H135       35.2844    0.4262   -4.6159 H         1 UNK         0.0612 
    136 H136       32.2345   -0.2860   -3.0486 H         1 UNK         0.0624 
    137 H137       31.6160   -0.4186   -4.6819 H         1 UNK         0.0624 
@<TRIPOS>BOND
     1    1    2 1    
     2    1   72 1    
     3    1   73 1    
     4    1   74 1    
     5    2    3 2    
     6    2    4 am   BACKBONE|DICT|INTERRES
     7    4    5 1    
     8    4   75 1    
     9    5    6 1    
    10    5   35 1    
    11    5   76 1    
    12    6    7 1    
    13    6   77 1    
    14    6   78 1    
    15    7    8 1    
    16    8    9 1    
    17    8   79 1    
    18    8   80 1    
    19    9   10 ar   
    20    9   14 ar   
    21   10   11 ar   
    22   10   81 1    
    23   11   12 ar   
    24   11   71 1    
    25   12   13 ar   
    26   12   82 1    
    27   13   14 ar   
    28   13   15 1    
    29   14   83 1    
    30   15   16 1    
    31   15   84 1    
    32   15   85 1    
    33   16   17 1    
    34   17   18 1    
    35   17   86 1    
    36   17   87 1    
    37   18   19 1    
    38   18   37 1    
    39   18   88 1    
    40   19   20 am   BACKBONE|DICT|INTERRES
    41   19   89 1    
    42   20   21 2    
    43   20   22 1    
    44   22   23 1    
    45   22   24 1    
    46   22   90 1    
    47   23   91 1    
    48   23   92 1    
    49   23   93 1    
    50   24   25 am   BACKBONE|DICT|INTERRES
    51   24   94 1    
    52   25   26 2    
    53   25   27 1    
    54   27   28 1    
    55   27   29 1    
    56   27   95 1    
    57   28   96 1    
    58   28   97 1    
    59   28   98 1    
    60   29   30 am   BACKBONE|DICT|INTERRES
    61   29   99 1    
    62   30   31 2    
    63   30   32 1    
    64   32   33 1    
    65   32   34 1    
    66   32  100 1    
    67   33  101 1    
    68   33  102 1    
    69   33  103 1    
    70   34   35 am   BACKBONE|DICT|INTERRES
    71   34  104 1    
    72   35   36 2    
    73   37   38 2    
    74   37   39 am   BACKBONE|DICT|INTERRES
    75   39   40 1    
    76   39  105 1    
    77   40   41 1    
    78   40   42 1    
    79   40  106 1    
    80   41  107 1    
    81   41  108 1    
    82   41  109 1    
    83   42   43 2    
    84   42   44 am   BACKBONE|DICT|INTERRES
    85   44   45 1    
    86   44  110 1    
    87   45   46 1    
    88   45   47 1    
    89   45  111 1    
    90   46  112 1    
    91   46  113 1    
    92   46  114 1    
    93   47   48 2    
    94   47   49 am   BACKBONE|DICT|INTERRES
    95   49   50 1    
    96   49  115 1    
    97   50   51 1    
    98   50   52 1    
    99   50  116 1    
   100   51  117 1    
   101   51  118 1    
   102   51  119 1    
   103   52   53 2    
   104   52   54 am   BACKBONE|DICT|INTERRES
   105   54   55 1    
   106   54  120 1    
   107   55   56 1    
   108   55   57 1    
   109   55  121 1    
   110   56  122 1    
   111   56  123 1    
   112   56  124 1    
   113   57   58 2    
   114   57   59 am   BACKBONE|DICT|INTERRES
   115   59   60 1    
   116   59  125 1    
   117   60   61 1    
   118   60   62 1    
   119   60  126 1    
   120   61  127 1    
   121   61  128 1    
   122   61  129 1    
   123   62   63 2    
   124   62   64 am   BACKBONE|DICT|INTERRES
   125   64   65 1    
   126   64  130 1    
   127   65   66 1    
   128   65   69 1    
   129   65  131 1    
   130   66   67 am   BACKBONE|DICT|INTERRES
   131   66   68 2    
   132   67  132 1    
   133   67  133 1    
   134   69   70 1    
   135   69  134 1    
   136   69  135 1    
   137   70   71 1    
   138   71  136 1    
   139   71  137 1    
@<TRIPOS>SUBSTRUCTURE
     1 UNK         1 GROUP             0       ****    0 ROOT    
