@<TRIPOS>MOLECULE
3R137
137   139    1
SMALL
USER_CHARGES


@<TRIPOS>ATOM
      1 CA         29.0923   -4.6631   -9.6491 C.3       0 UNK        -0.2020 
      2 C          28.6953   -5.0910   -8.2433 C.2       0 UNK         0.4855 
      3 O          28.5117   -6.2836   -7.9966 O.2       0 UNK        -0.5197 
      4 N          28.5665   -4.1283   -7.3208 N.am      1 UNK        -0.4892 
      5 CA         28.0511   -4.3308   -5.9632 C.3       1 UNK         0.0835 
      6 C6         28.3634   -3.1013   -5.0682 C.3       12 UNK        -0.0855 
      7 S7         28.4856   -3.5501   -3.3019 S.3       12 UNK        -0.2931 
      8 C8         30.2429   -3.2328   -2.9399 C.3       12 UNK         0.0378 
      9 C9         30.5305   -1.7437   -2.8111 C.ar      12 UNK        -0.0802 
     10 C10        31.2561   -1.0710   -3.7995 C.ar      12 UNK        -0.0944 
     11 C11        31.5111    0.2993   -3.6810 C.ar      12 UNK        -0.0787 
     12 C12        31.0388    0.9940   -2.5658 C.ar      12 UNK        -0.0862 
     13 C13        30.2930    0.3372   -1.5832 C.ar      12 UNK        -0.0733 
     14 C14        30.0576   -1.0354   -1.7015 C.ar      12 UNK        -0.0832 
     15 C15        29.6967    1.1224   -0.4236 C.3       12 UNK         0.0240 
     16 S16        27.9180    1.4498   -0.6741 S.3       12 UNK        -0.2522 
     17 C17        27.9155    2.3266   -2.2760 C.3       12 UNK        -0.0967 
     18 CA         27.5174    1.3732   -3.4411 C.3       5 UNK         0.0660 
     19 N          26.1005    0.9974   -3.3934 N.am      5 UNK        -0.4015 
     20 C          25.0370    1.7684   -3.6546 C.2       4 UNK         0.4946 
     21 O          25.1105    2.9071   -4.1226 O.2       4 UNK        -0.5353 
     22 CA         23.6567    1.1617   -3.3243 C.3       4 UNK         0.0277 
     23 CB         22.5507    2.2330   -3.2756 C.3       4 UNK        -0.1981 
     24 N          23.2429    0.1063   -4.2526 N.am      4 UNK        -0.4209 
     25 C          23.8116   -1.0993   -4.3783 C.2       3 UNK         0.4942 
     26 O          24.7931   -1.4609   -3.7229 O.2       3 UNK        -0.5208 
     27 CA         23.1712   -2.0383   -5.4194 C.3       3 UNK         0.0250 
     28 CB         23.2810   -1.4475   -6.8369 C.3       3 UNK        -0.1990 
     29 N          23.8056   -3.3550   -5.4170 N.am      3 UNK        -0.4232 
     30 C          23.6618   -4.3032   -4.4848 C.2       2 UNK         0.4993 
     31 O          22.8321   -4.2469   -3.5756 O.2       2 UNK        -0.5286 
     32 CA         24.6144   -5.5143   -4.5612 C.3       2 UNK         0.0209 
     33 CB         24.0709   -6.5903   -5.5222 C.3       2 UNK        -0.1931 
     34 N          26.0188   -5.1766   -4.8620 N.am      2 UNK        -0.4546 
     35 C          26.5374   -4.6535   -5.9831 C.2       1 UNK         0.5154 
     36 O          25.8597   -4.3835   -6.9789 O.2       1 UNK        -0.5181 
     37 C          27.9158    1.8937   -4.8361 C.2       5 UNK         0.5014 
     38 O          28.0931    1.0886   -5.7510 O.2       5 UNK        -0.5248 
     39 N          28.0133    3.2233   -4.9900 N.am      6 UNK        -0.4434 
     40 CA         28.3507    3.9237   -6.2336 C.3       6 UNK         0.0363 
     41 CB         28.4543    5.4304   -5.9496 C.3       6 UNK        -0.1936 
     42 C          27.3827    3.6602   -7.4041 C.2       6 UNK         0.5081 
     43 O          27.7607    3.8865   -8.5534 O.2       6 UNK        -0.5248 
     44 N          26.1747    3.1573   -7.1083 N.am      7 UNK        -0.4718 
     45 CA         25.2018    2.6680   -8.0895 C.3       7 UNK         0.0273 
     46 CB         23.8988    2.3080   -7.3592 C.3       7 UNK        -0.1935 
     47 C          25.6983    1.4685   -8.9252 C.2       7 UNK         0.5018 
     48 O          25.1940    1.2667  -10.0305 O.2       7 UNK        -0.5186 
     49 N          26.6715    0.7079   -8.4055 N.am      8 UNK        -0.4240 
     50 CA         27.3333   -0.3992   -9.0914 C.3       8 UNK         0.0235 
     51 CB         26.5530   -1.7029   -8.8498 C.3       8 UNK        -0.2000 
     52 C          28.7802   -0.4530   -8.5881 C.2       8 UNK         0.4941 
     53 O          29.1511   -1.3871   -7.8725 O.2       8 UNK        -0.5273 
     54 N          29.5423    0.5987   -8.9215 N.am      9 UNK        -0.4262 
     55 CA         30.8501    0.9684   -8.3687 C.3       9 UNK         0.0264 
     56 CB         31.1951    2.3939   -8.8417 C.3       9 UNK        -0.1955 
     57 C          32.0110   -0.0195   -8.6335 C.2       9 UNK         0.5031 
     58 O          33.0436    0.3748   -9.1801 O.2       9 UNK        -0.5390 
     59 N          31.8562   -1.2733   -8.1916 N.am      10 UNK        -0.4204 
     60 CA         32.8565   -2.3486   -8.2625 C.3       10 UNK         0.0237 
     61 CB         32.2433   -3.6452   -7.7123 C.3       10 UNK        -0.1985 
     62 C          34.1767   -2.0477   -7.5288 C.2       10 UNK         0.4970 
     63 O          35.2145   -2.5932   -7.9052 O.2       10 UNK        -0.4914 
     64 N          34.1099   -1.1921   -6.5027 N.am      11 UNK        -0.4285 
     65 CA         35.2534   -0.6898   -5.7327 C.3       11 UNK         0.1007 
     66 C          36.1808    0.3001   -6.5024 C.2       11 UNK         0.5703 
     67 N          35.8035    0.7978   -7.6762 N.am      11 UNK        -0.7361 
     68 O          37.2713    0.6095   -6.0282 O.2       11 UNK        -0.4986 
     69 C69        34.7983   -0.1572   -4.3441 C.3       12 UNK        -0.0947 
     70 S70        33.9569    1.4677   -4.3556 S.3       12 UNK        -0.2240 
     71 C71        32.2388    1.0511   -4.7829 C.3       12 UNK         0.0194 
     72 H72        29.9583   -5.2319   -9.9867 H         1 UNK         0.0906 
     73 H73        28.2718   -4.8501  -10.3412 H         1 UNK         0.0906 
     74 H74        29.3429   -3.6035   -9.6979 H         1 UNK         0.0906 
     75 H75        28.7218   -3.1557   -7.5810 H         1 UNK         0.3140 
     76 H76        28.5694   -5.2036   -5.5592 H         1 UNK         0.1085 
     77 H77        29.3081   -2.6476   -5.3708 H         1 UNK         0.0836 
     78 H78        27.6174   -2.3123   -5.1908 H         1 UNK         0.0836 
     79 H79        30.5035   -3.7276   -2.0032 H         1 UNK         0.0731 
     80 H80        30.8656   -3.6911   -3.7100 H         1 UNK         0.0731 
     81 H81        31.6092   -1.6133   -4.6652 H         1 UNK         0.1312 
     82 H82        31.2255    2.0561   -2.4831 H         1 UNK         0.1406 
     83 H83        29.4743   -1.5471   -0.9477 H         1 UNK         0.1631 
     84 H84        30.2216    2.0693   -0.2874 H         1 UNK         0.0717 
     85 H85        29.8285    0.5636    0.5040 H         1 UNK         0.0717 
     86 H86        27.2227    3.1668   -2.2030 H         1 UNK         0.0934 
     87 H87        28.9005    2.7678   -2.4321 H         1 UNK         0.0934 
     88 H88        28.0722    0.4413   -3.3230 H         1 UNK         0.0739 
     89 H89        25.9098    0.0280   -3.1544 H         1 UNK         0.3093 
     90 H90        23.7312    0.7219   -2.3272 H         1 UNK         0.0818 
     91 H91        21.6025    1.8121   -2.9408 H         1 UNK         0.0819 
     92 H92        22.8115    3.0313   -2.5793 H         1 UNK         0.0819 
     93 H93        22.3894    2.6933   -4.2514 H         1 UNK         0.0819 
     94 H94        22.4490    0.3224   -4.8378 H         1 UNK         0.3041 
     95 H95        22.1165   -2.1652   -5.1664 H         1 UNK         0.0784 
     96 H96        22.9517   -2.1600   -7.5937 H         1 UNK         0.0793 
     97 H97        22.6583   -0.5595   -6.9466 H         1 UNK         0.0793 
     98 H98        24.3055   -1.1592   -7.0730 H         1 UNK         0.0793 
     99 H99        24.5220   -3.5214   -6.1205 H         1 UNK         0.3024 
    100 H100       24.6280   -5.9512   -3.5610 H         1 UNK         0.1171 
    101 H101       24.0009   -6.2275   -6.5480 H         1 UNK         0.0786 
    102 H102       23.0705   -6.9066   -5.2238 H         1 UNK         0.0786 
    103 H103       24.7043   -7.4774   -5.5230 H         1 UNK         0.0786 
    104 H104       26.6522   -5.2825   -4.0797 H         1 UNK         0.2977 
    105 H105       27.7720    3.8087   -4.2036 H         1 UNK         0.3127 
    106 H106       29.3337    3.5657   -6.5437 H         1 UNK         0.0770 
    107 H107       27.5045    5.8415   -5.6051 H         1 UNK         0.0814 
    108 H108       28.7392    5.9786   -6.8489 H         1 UNK         0.0814 
    109 H109       29.2092    5.6424   -5.1922 H         1 UNK         0.0814 
    110 H110       25.9349    3.0379   -6.1296 H         1 UNK         0.2983 
    111 H111       24.9945    3.4832   -8.7860 H         1 UNK         0.0947 
    112 H112       23.1376    1.9626   -8.0602 H         1 UNK         0.0806 
    113 H113       23.4878    3.1683   -6.8306 H         1 UNK         0.0806 
    114 H114       24.0596    1.5139   -6.6309 H         1 UNK         0.0806 
    115 H115       27.0570    0.9475   -7.4945 H         1 UNK         0.3000 
    116 H116       27.3663   -0.2066  -10.1660 H         1 UNK         0.0850 
    117 H117       26.4973   -1.9397   -7.7874 H         1 UNK         0.0810 
    118 H118       25.5346   -1.6342   -9.2316 H         1 UNK         0.0810 
    119 H119       27.0269   -2.5452   -9.3527 H         1 UNK         0.0810 
    120 H120       29.1236    1.2926   -9.5247 H         1 UNK         0.3040 
    121 H121       30.7122    1.0132   -7.2882 H         1 UNK         0.0766 
    122 H122       30.4058    3.1039   -8.5995 H         1 UNK         0.0812 
    123 H123       31.3540    2.4308   -9.9203 H         1 UNK         0.0812 
    124 H124       32.1075    2.7556   -8.3652 H         1 UNK         0.0812 
    125 H125       30.9303   -1.5129   -7.8373 H         1 UNK         0.3205 
    126 H126       33.1014   -2.5008   -9.3156 H         1 UNK         0.0754 
    127 H127       32.9731   -4.4563   -7.7044 H         1 UNK         0.0769 
    128 H128       31.4132   -3.9740   -8.3310 H         1 UNK         0.0769 
    129 H129       31.8772   -3.5232   -6.6920 H         1 UNK         0.0769 
    130 H130       33.2171   -0.7863   -6.2795 H         1 UNK         0.2981 
    131 H131       35.8821   -1.5592   -5.5308 H         1 UNK         0.0541 
    132 H132       36.4197    1.4312   -8.1599 H         1 UNK         0.3459 
    133 H133       34.9112    0.5536   -8.0872 H         1 UNK         0.3459 
    134 H134       35.6715   -0.0561   -3.6976 H         1 UNK         0.0612 
    135 H135       34.1614   -0.8896   -3.8467 H         1 UNK         0.0612 
    136 H136       31.7016    1.9764   -4.9974 H         1 UNK         0.0624 
    137 H137       32.2246    0.4790   -5.7053 H         1 UNK         0.0624 
@<TRIPOS>BOND
     1    1    2 1    
     2    1   72 1    
     3    1   73 1    
     4    1   74 1    
     5    2    3 2    
     6    2    4 am   BACKBONE|DICT|INTERRES
     7    4    5 1    
     8    4   75 1    
     9    5    6 1    
    10    5   35 1    
    11    5   76 1    
    12    6    7 1    
    13    6   77 1    
    14    6   78 1    
    15    7    8 1    
    16    8    9 1    
    17    8   79 1    
    18    8   80 1    
    19    9   10 ar   
    20    9   14 ar   
    21   10   11 ar   
    22   10   81 1    
    23   11   12 ar   
    24   11   71 1    
    25   12   13 ar   
    26   12   82 1    
    27   13   14 ar   
    28   13   15 1    
    29   14   83 1    
    30   15   16 1    
    31   15   84 1    
    32   15   85 1    
    33   16   17 1    
    34   17   18 1    
    35   17   86 1    
    36   17   87 1    
    37   18   19 1    
    38   18   37 1    
    39   18   88 1    
    40   19   20 am   BACKBONE|DICT|INTERRES
    41   19   89 1    
    42   20   21 2    
    43   20   22 1    
    44   22   23 1    
    45   22   24 1    
    46   22   90 1    
    47   23   91 1    
    48   23   92 1    
    49   23   93 1    
    50   24   25 am   BACKBONE|DICT|INTERRES
    51   24   94 1    
    52   25   26 2    
    53   25   27 1    
    54   27   28 1    
    55   27   29 1    
    56   27   95 1    
    57   28   96 1    
    58   28   97 1    
    59   28   98 1    
    60   29   30 am   BACKBONE|DICT|INTERRES
    61   29   99 1    
    62   30   31 2    
    63   30   32 1    
    64   32   33 1    
    65   32   34 1    
    66   32  100 1    
    67   33  101 1    
    68   33  102 1    
    69   33  103 1    
    70   34   35 am   BACKBONE|DICT|INTERRES
    71   34  104 1    
    72   35   36 2    
    73   37   38 2    
    74   37   39 am   BACKBONE|DICT|INTERRES
    75   39   40 1    
    76   39  105 1    
    77   40   41 1    
    78   40   42 1    
    79   40  106 1    
    80   41  107 1    
    81   41  108 1    
    82   41  109 1    
    83   42   43 2    
    84   42   44 am   BACKBONE|DICT|INTERRES
    85   44   45 1    
    86   44  110 1    
    87   45   46 1    
    88   45   47 1    
    89   45  111 1    
    90   46  112 1    
    91   46  113 1    
    92   46  114 1    
    93   47   48 2    
    94   47   49 am   BACKBONE|DICT|INTERRES
    95   49   50 1    
    96   49  115 1    
    97   50   51 1    
    98   50   52 1    
    99   50  116 1    
   100   51  117 1    
   101   51  118 1    
   102   51  119 1    
   103   52   53 2    
   104   52   54 am   BACKBONE|DICT|INTERRES
   105   54   55 1    
   106   54  120 1    
   107   55   56 1    
   108   55   57 1    
   109   55  121 1    
   110   56  122 1    
   111   56  123 1    
   112   56  124 1    
   113   57   58 2    
   114   57   59 am   BACKBONE|DICT|INTERRES
   115   59   60 1    
   116   59  125 1    
   117   60   61 1    
   118   60   62 1    
   119   60  126 1    
   120   61  127 1    
   121   61  128 1    
   122   61  129 1    
   123   62   63 2    
   124   62   64 am   BACKBONE|DICT|INTERRES
   125   64   65 1    
   126   64  130 1    
   127   65   66 1    
   128   65   69 1    
   129   65  131 1    
   130   66   67 am   BACKBONE|DICT|INTERRES
   131   66   68 2    
   132   67  132 1    
   133   67  133 1    
   134   69   70 1    
   135   69  134 1    
   136   69  135 1    
   137   70   71 1    
   138   71  136 1    
   139   71  137 1    
@<TRIPOS>SUBSTRUCTURE
     1 UNK         1 GROUP             0       ****    0 ROOT    
