@<TRIPOS>MOLECULE
3R137
137   139    1
SMALL
USER_CHARGES


@<TRIPOS>ATOM
      1 CA         27.7247   -4.9451   -8.6134 C.3       0 UNK        -0.2020 
      2 C          26.8233   -5.3949   -7.4743 C.2       0 UNK         0.4855 
      3 O          25.9198   -6.2033   -7.6899 O.2       0 UNK        -0.5197 
      4 N          27.0779   -4.8969   -6.2594 N.am      1 UNK        -0.4892 
      5 CA         26.3282   -5.2286   -5.0470 C.3       1 UNK         0.0835 
      6 C6         27.1856   -5.0140   -3.7726 C.3       12 UNK        -0.0855 
      7 S7         27.8831   -3.3321   -3.6120 S.3       12 UNK        -0.2931 
      8 C8         29.4094   -3.6855   -2.6849 C.3       12 UNK         0.0378 
      9 C9         30.1683   -2.3999   -2.4043 C.ar      12 UNK        -0.0802 
     10 C10        31.3623   -2.1133   -3.0731 C.ar      12 UNK        -0.0944 
     11 C11        32.0246   -0.9012   -2.8521 C.ar      12 UNK        -0.0787 
     12 C12        31.4713    0.0363   -1.9745 C.ar      12 UNK        -0.0862 
     13 C13        30.2682   -0.2358   -1.3148 C.ar      12 UNK        -0.0733 
     14 C14        29.6445   -1.4718   -1.5015 C.ar      12 UNK        -0.0832 
     15 C15        29.5920    0.8306   -0.4663 C.3       12 UNK         0.0240 
     16 S16        28.0095    1.3663   -1.2072 S.3       12 UNK        -0.2522 
     17 C17        28.5295    1.8906   -2.8792 C.3       12 UNK        -0.0967 
     18 CA         28.2805    0.7903   -3.9575 C.3       5 UNK         0.0660 
     19 N          26.8761    0.3925   -4.0783 N.am      5 UNK        -0.4015 
     20 C          25.8727    1.1463   -4.5495 C.2       4 UNK         0.4946 
     21 O          26.0084    2.3081   -4.9378 O.2       4 UNK        -0.5353 
     22 CA         24.4786    0.4992   -4.6082 C.3       4 UNK         0.0277 
     23 CB         24.1424    0.0660   -6.0422 C.3       4 UNK        -0.1981 
     24 N          24.3443   -0.6579   -3.7190 N.am      4 UNK        -0.4209 
     25 C          24.1175   -0.5726   -2.3990 C.2       3 UNK         0.4942 
     26 O          24.0010    0.4996   -1.8032 O.2       3 UNK        -0.5208 
     27 CA         24.0156   -1.8934   -1.6040 C.3       3 UNK         0.0250 
     28 CB         23.0401   -1.7928   -0.4117 C.3       3 UNK        -0.1990 
     29 N          23.7118   -3.0690   -2.4309 N.am      3 UNK        -0.4232 
     30 C          22.6236   -3.2870   -3.1880 C.2       2 UNK         0.4993 
     31 O          21.6494   -2.5339   -3.2216 O.2       2 UNK        -0.5286 
     32 CA         22.6394   -4.5521   -4.0742 C.3       2 UNK         0.0209 
     33 CB         21.8652   -4.3480   -5.3950 C.3       2 UNK        -0.1931 
     34 N          23.9883   -5.0815   -4.3434 N.am      2 UNK        -0.4546 
     35 C          24.9955   -4.4550   -4.9738 C.2       1 UNK         0.5154 
     36 O          24.9208   -3.3031   -5.4116 O.2       1 UNK        -0.5181 
     37 C          28.8751    1.0994   -5.3469 C.2       5 UNK         0.5014 
     38 O          28.6243    0.3406   -6.2883 O.2       5 UNK        -0.5248 
     39 N          29.6426    2.1923   -5.4676 N.am      6 UNK        -0.4434 
     40 CA         30.3611    2.6167   -6.6729 C.3       6 UNK         0.0363 
     41 CB         31.1140    3.9217   -6.3747 C.3       6 UNK        -0.1936 
     42 C          29.4945    2.7761   -7.9334 C.2       6 UNK         0.5081 
     43 O          30.0184    2.6126   -9.0340 O.2       6 UNK        -0.5248 
     44 N          28.1917    3.0408   -7.7615 N.am      7 UNK        -0.4718 
     45 CA         27.2075    3.1153   -8.8442 C.3       7 UNK         0.0273 
     46 CB         25.8778    3.6442   -8.2835 C.3       7 UNK        -0.1935 
     47 C          26.9879    1.7814   -9.5846 C.2       7 UNK         0.5018 
     48 O          26.5678    1.8141  -10.7421 O.2       7 UNK        -0.5186 
     49 N          27.2740    0.6495   -8.9242 N.am      8 UNK        -0.4240 
     50 CA         27.1953   -0.6915   -9.5074 C.3       8 UNK         0.0235 
     51 CB         26.1833   -1.5369   -8.7184 C.3       8 UNK        -0.2000 
     52 C          28.5667   -1.3794   -9.5300 C.2       8 UNK         0.4941 
     53 O          28.8947   -2.0270  -10.5240 O.2       8 UNK        -0.5273 
     54 N          29.3389   -1.2506   -8.4415 N.am      9 UNK        -0.4262 
     55 CA         30.6248   -1.9272   -8.2529 C.3       9 UNK         0.0264 
     56 CB         30.9240   -2.0155   -6.7465 C.3       9 UNK        -0.1955 
     57 C          31.7993   -1.2735   -9.0025 C.2       9 UNK         0.5031 
     58 O          32.8355   -1.9228   -9.1473 O.2       9 UNK        -0.5390 
     59 N          31.6412   -0.0129   -9.4404 N.am      10 UNK        -0.4204 
     60 CA         32.6318    0.8129  -10.1517 C.3       10 UNK         0.0237 
     61 CB         32.9674    0.2067  -11.5315 C.3       10 UNK        -0.1985 
     62 C          33.8969    1.1454   -9.3297 C.2       10 UNK         0.4970 
     63 O          34.9103    1.5404   -9.9079 O.2       10 UNK        -0.4914 
     64 N          33.8158    1.0024   -8.0014 N.am      11 UNK        -0.4285 
     65 CA         34.8920    1.2658   -7.0342 C.3       11 UNK         0.1007 
     66 C          35.1517    2.7680   -6.7119 C.2       11 UNK         0.5703 
     67 N          34.4372    3.7137   -7.3094 N.am      11 UNK        -0.7361 
     68 O          36.0362    3.0839   -5.9196 O.2       11 UNK        -0.4986 
     69 C69        34.7232    0.3930   -5.7611 C.3       12 UNK        -0.0947 
     70 S70        33.0987    0.5572   -4.9457 S.3       12 UNK        -0.2240 
     71 C71        33.3339   -0.6024   -3.5657 C.3       12 UNK         0.0194 
     72 H72        27.1301   -4.6193   -9.4660 H         1 UNK         0.0906 
     73 H73        28.3719   -4.1225   -8.3137 H         1 UNK         0.0906 
     74 H74        28.3560   -5.7714   -8.9388 H         1 UNK         0.0906 
     75 H75        27.7941   -4.1958   -6.1335 H         1 UNK         0.3140 
     76 H76        26.0818   -6.2922   -5.0952 H         1 UNK         0.1085 
     77 H77        28.0081   -5.7311   -3.7826 H         1 UNK         0.0836 
     78 H78        26.6134   -5.2440   -2.8719 H         1 UNK         0.0836 
     79 H79        29.1613   -4.1779   -1.7434 H         1 UNK         0.0731 
     80 H80        30.0275   -4.3829   -3.2526 H         1 UNK         0.0731 
     81 H81        31.7715   -2.8289   -3.7731 H         1 UNK         0.1312 
     82 H82        31.9646    0.9882   -1.8319 H         1 UNK         0.1406 
     83 H83        28.7067   -1.6795   -1.0037 H         1 UNK         0.1631 
     84 H84        30.2400    1.6992   -0.3387 H         1 UNK         0.0717 
     85 H85        29.4038    0.4345    0.5325 H         1 UNK         0.0717 
     86 H86        27.9889    2.8052   -3.1295 H         1 UNK         0.0934 
     87 H87        29.5843    2.1640   -2.8264 H         1 UNK         0.0934 
     88 H88        28.8053   -0.1109   -3.6495 H         1 UNK         0.0739 
     89 H89        26.6738   -0.5636   -3.8269 H         1 UNK         0.3093 
     90 H90        23.7556    1.2607   -4.3078 H         1 UNK         0.0818 
     91 H91        23.1125   -0.2831   -6.1192 H         1 UNK         0.0819 
     92 H92        24.2610    0.8910   -6.7457 H         1 UNK         0.0819 
     93 H93        24.7924   -0.7434   -6.3694 H         1 UNK         0.0819 
     94 H94        24.4262   -1.5734   -4.1485 H         1 UNK         0.3041 
     95 H95        25.0129   -2.0659   -1.1962 H         1 UNK         0.0784 
     96 H96        23.3541   -1.0175    0.2882 H         1 UNK         0.0793 
     97 H97        22.0287   -1.5459   -0.7358 H         1 UNK         0.0793 
     98 H98        22.9954   -2.7288    0.1450 H         1 UNK         0.0793 
     99 H99        24.4482   -3.7579   -2.4845 H         1 UNK         0.3024 
    100 H100       22.1154   -5.3190   -3.5010 H         1 UNK         0.1171 
    101 H101       21.8774   -5.2505   -6.0060 H         1 UNK         0.0786 
    102 H102       22.2847   -3.5351   -5.9889 H         1 UNK         0.0786 
    103 H103       20.8195   -4.1033   -5.2043 H         1 UNK         0.0786 
    104 H104       24.1541   -6.0180   -3.9985 H         1 UNK         0.2977 
    105 H105       29.7789    2.7692   -4.6511 H         1 UNK         0.3127 
    106 H106       31.0963    1.8420   -6.8948 H         1 UNK         0.0770 
    107 H107       30.4381    4.7111   -6.0439 H         1 UNK         0.0814 
    108 H108       31.6284    4.2905   -7.2627 H         1 UNK         0.0814 
    109 H109       31.8693    3.7764   -5.6018 H         1 UNK         0.0814 
    110 H110       27.8381    3.1287   -6.8181 H         1 UNK         0.2983 
    111 H111       27.5786    3.8329   -9.5793 H         1 UNK         0.0947 
    112 H112       25.1344    3.7500   -9.0750 H         1 UNK         0.0806 
    113 H113       26.0013    4.6248   -7.8237 H         1 UNK         0.0806 
    114 H114       25.4609    2.9718   -7.5334 H         1 UNK         0.0806 
    115 H115       27.6300    0.7187   -7.9758 H         1 UNK         0.3000 
    116 H116       26.8479   -0.6380  -10.5414 H         1 UNK         0.0850 
    117 H117       26.5003   -1.6958   -7.6865 H         1 UNK         0.0810 
    118 H118       25.2023   -1.0627   -8.7050 H         1 UNK         0.0810 
    119 H119       26.0537   -2.5173   -9.1757 H         1 UNK         0.0810 
    120 H120       29.0026   -0.7043   -7.6483 H         1 UNK         0.3040 
    121 H121       30.5366   -2.9464   -8.6352 H         1 UNK         0.0766 
    122 H122       31.8666   -2.5322   -6.5603 H         1 UNK         0.0812 
    123 H123       30.1444   -2.5629   -6.2162 H         1 UNK         0.0812 
    124 H124       31.0002   -1.0281   -6.2926 H         1 UNK         0.0812 
    125 H125       30.7525    0.4422   -9.2710 H         1 UNK         0.3205 
    126 H126       32.1457    1.7714  -10.3354 H         1 UNK         0.0754 
    127 H127       33.5680    0.8949  -12.1276 H         1 UNK         0.0769 
    128 H128       32.0627   -0.0061  -12.1012 H         1 UNK         0.0769 
    129 H129       33.5331   -0.7211  -11.4412 H         1 UNK         0.0769 
    130 H130       32.9519    0.6709   -7.6024 H         1 UNK         0.2981 
    131 H131       35.8191    0.9328   -7.5043 H         1 UNK         0.0541 
    132 H132       33.7383    3.4711   -7.9906 H         1 UNK         0.3459 
    133 H133       34.6277    4.6802   -7.0981 H         1 UNK         0.3459 
    134 H134       35.5096    0.6029   -5.0338 H         1 UNK         0.0612 
    135 H135       34.8489   -0.6560   -6.0342 H         1 UNK         0.0612 
    136 H136       33.7755   -1.5265   -3.9422 H         1 UNK         0.0624 
    137 H137       34.0518   -0.1813   -2.8604 H         1 UNK         0.0624 
@<TRIPOS>BOND
     1    1    2 1    
     2    1   72 1    
     3    1   73 1    
     4    1   74 1    
     5    2    3 2    
     6    2    4 am   BACKBONE|DICT|INTERRES
     7    4    5 1    
     8    4   75 1    
     9    5    6 1    
    10    5   35 1    
    11    5   76 1    
    12    6    7 1    
    13    6   77 1    
    14    6   78 1    
    15    7    8 1    
    16    8    9 1    
    17    8   79 1    
    18    8   80 1    
    19    9   10 ar   
    20    9   14 ar   
    21   10   11 ar   
    22   10   81 1    
    23   11   12 ar   
    24   11   71 1    
    25   12   13 ar   
    26   12   82 1    
    27   13   14 ar   
    28   13   15 1    
    29   14   83 1    
    30   15   16 1    
    31   15   84 1    
    32   15   85 1    
    33   16   17 1    
    34   17   18 1    
    35   17   86 1    
    36   17   87 1    
    37   18   19 1    
    38   18   37 1    
    39   18   88 1    
    40   19   20 am   BACKBONE|DICT|INTERRES
    41   19   89 1    
    42   20   21 2    
    43   20   22 1    
    44   22   23 1    
    45   22   24 1    
    46   22   90 1    
    47   23   91 1    
    48   23   92 1    
    49   23   93 1    
    50   24   25 am   BACKBONE|DICT|INTERRES
    51   24   94 1    
    52   25   26 2    
    53   25   27 1    
    54   27   28 1    
    55   27   29 1    
    56   27   95 1    
    57   28   96 1    
    58   28   97 1    
    59   28   98 1    
    60   29   30 am   BACKBONE|DICT|INTERRES
    61   29   99 1    
    62   30   31 2    
    63   30   32 1    
    64   32   33 1    
    65   32   34 1    
    66   32  100 1    
    67   33  101 1    
    68   33  102 1    
    69   33  103 1    
    70   34   35 am   BACKBONE|DICT|INTERRES
    71   34  104 1    
    72   35   36 2    
    73   37   38 2    
    74   37   39 am   BACKBONE|DICT|INTERRES
    75   39   40 1    
    76   39  105 1    
    77   40   41 1    
    78   40   42 1    
    79   40  106 1    
    80   41  107 1    
    81   41  108 1    
    82   41  109 1    
    83   42   43 2    
    84   42   44 am   BACKBONE|DICT|INTERRES
    85   44   45 1    
    86   44  110 1    
    87   45   46 1    
    88   45   47 1    
    89   45  111 1    
    90   46  112 1    
    91   46  113 1    
    92   46  114 1    
    93   47   48 2    
    94   47   49 am   BACKBONE|DICT|INTERRES
    95   49   50 1    
    96   49  115 1    
    97   50   51 1    
    98   50   52 1    
    99   50  116 1    
   100   51  117 1    
   101   51  118 1    
   102   51  119 1    
   103   52   53 2    
   104   52   54 am   BACKBONE|DICT|INTERRES
   105   54   55 1    
   106   54  120 1    
   107   55   56 1    
   108   55   57 1    
   109   55  121 1    
   110   56  122 1    
   111   56  123 1    
   112   56  124 1    
   113   57   58 2    
   114   57   59 am   BACKBONE|DICT|INTERRES
   115   59   60 1    
   116   59  125 1    
   117   60   61 1    
   118   60   62 1    
   119   60  126 1    
   120   61  127 1    
   121   61  128 1    
   122   61  129 1    
   123   62   63 2    
   124   62   64 am   BACKBONE|DICT|INTERRES
   125   64   65 1    
   126   64  130 1    
   127   65   66 1    
   128   65   69 1    
   129   65  131 1    
   130   66   67 am   BACKBONE|DICT|INTERRES
   131   66   68 2    
   132   67  132 1    
   133   67  133 1    
   134   69   70 1    
   135   69  134 1    
   136   69  135 1    
   137   70   71 1    
   138   71  136 1    
   139   71  137 1    
@<TRIPOS>SUBSTRUCTURE
     1 UNK         1 GROUP             0       ****    0 ROOT    
