@<TRIPOS>MOLECULE
3R137
137   139    1
SMALL
USER_CHARGES


@<TRIPOS>ATOM
      1 CA         26.1469   -7.3622    0.9612 C.3       0 UNK        -0.2020 
      2 C          25.7116   -5.9233    0.7291 C.2       0 UNK         0.4855 
      3 O          24.7787   -5.4523    1.3797 O.2       0 UNK        -0.5197 
      4 N          26.3764   -5.2209   -0.1973 N.am      1 UNK        -0.4892 
      5 CA         26.0903   -3.8265   -0.5626 C.3       1 UNK         0.0835 
      6 C6         27.3317   -3.1290   -1.1725 C.3       12 UNK        -0.0855 
      7 S7         28.0436   -3.9828   -2.6283 S.3       12 UNK        -0.2931 
      8 C8         29.8312   -3.9046   -2.2702 C.3       12 UNK         0.0378 
      9 C9         30.4580   -2.5644   -2.6469 C.ar      12 UNK        -0.0802 
     10 C10        31.2495   -2.4552   -3.7955 C.ar      12 UNK        -0.0944 
     11 C11        31.8867   -1.2513   -4.1184 C.ar      12 UNK        -0.0787 
     12 C12        31.7132   -0.1419   -3.2813 C.ar      12 UNK        -0.0862 
     13 C13        30.9035   -0.2278   -2.1450 C.ar      12 UNK        -0.0733 
     14 C14        30.2922   -1.4440   -1.8267 C.ar      12 UNK        -0.0832 
     15 C15        30.7033    0.9813   -1.2419 C.3       12 UNK         0.0240 
     16 S16        29.0534    1.7254   -1.4569 S.3       12 UNK        -0.2522 
     17 C17        29.2332    2.6267   -3.0347 C.3       12 UNK        -0.0967 
     18 CA         28.7278    1.8423   -4.2789 C.3       5 UNK         0.0660 
     19 N          27.3043    1.5095   -4.1941 N.am      5 UNK        -0.4015 
     20 C          26.8214    0.3019   -3.8867 C.2       4 UNK         0.4946 
     21 O          27.5351   -0.6628   -3.6182 O.2       4 UNK        -0.5353 
     22 CA         25.2916    0.1186   -3.8338 C.3       4 UNK         0.0277 
     23 CB         24.4744    1.2492   -4.5014 C.3       4 UNK        -0.1981 
     24 N          24.9200   -1.2070   -4.3423 N.am      4 UNK        -0.4209 
     25 C          25.0710   -1.6542   -5.6001 C.2       3 UNK         0.4942 
     26 O          25.3615   -0.9281   -6.5492 O.2       3 UNK        -0.5208 
     27 CA         24.9034   -3.1647   -5.8610 C.3       3 UNK         0.0250 
     28 CB         26.2018   -3.7581   -6.4348 C.3       3 UNK        -0.1990 
     29 N          24.5376   -3.9234   -4.6645 N.am      3 UNK        -0.4232 
     30 C          23.2902   -4.0739   -4.2010 C.2       2 UNK         0.4993 
     31 O          22.2895   -3.6374   -4.7703 O.2       2 UNK        -0.5286 
     32 CA         23.1316   -4.8208   -2.8641 C.3       2 UNK         0.0209 
     33 CB         22.7424   -6.2879   -3.1087 C.3       2 UNK        -0.1931 
     34 N          24.3243   -4.7765   -2.0089 N.am      2 UNK        -0.4546 
     35 C          24.8440   -3.6668   -1.4616 C.2       1 UNK         0.5154 
     36 O          24.3818   -2.5415   -1.6577 O.2       1 UNK        -0.5181 
     37 C          28.9650    2.6532   -5.5646 C.2       5 UNK         0.5014 
     38 O          28.0057    3.0866   -6.2107 O.2       5 UNK        -0.5248 
     39 N          30.2477    2.8751   -5.8849 N.am      6 UNK        -0.4434 
     40 CA         30.7520    3.6804   -7.0004 C.3       6 UNK         0.0363 
     41 CB         30.4018    5.1739   -6.8054 C.3       6 UNK        -0.1936 
     42 C          30.3299    3.0969   -8.3599 C.2       6 UNK         0.5081 
     43 O          30.4872    1.8926   -8.5656 O.2       6 UNK        -0.5248 
     44 N          29.8311    3.9395   -9.2746 N.am      7 UNK        -0.4718 
     45 CA         29.4585    3.5781  -10.6472 C.3       7 UNK         0.0273 
     46 CB         28.9948    4.8365  -11.3975 C.3       7 UNK        -0.1935 
     47 C          28.3959    2.4702  -10.7456 C.2       7 UNK         0.5018 
     48 O          28.4569    1.6648  -11.6741 O.2       7 UNK        -0.5186 
     49 N          27.4786    2.4154   -9.7694 N.am      8 UNK        -0.4240 
     50 CA         26.4502    1.3773   -9.6539 C.3       8 UNK         0.0235 
     51 CB         25.4428    1.7832   -8.5675 C.3       8 UNK        -0.2000 
     52 C          27.0304   -0.0200   -9.3646 C.2       8 UNK         0.4941 
     53 O          26.4905   -1.0106   -9.8585 O.2       8 UNK        -0.5273 
     54 N          28.1374   -0.0658   -8.6113 N.am      9 UNK        -0.4262 
     55 CA         28.8799   -1.2819   -8.2741 C.3       9 UNK         0.0264 
     56 CB         29.3037   -1.1993   -6.7993 C.3       9 UNK        -0.1955 
     57 C          30.0920   -1.5084   -9.1983 C.2       9 UNK         0.5031 
     58 O          30.8421   -2.4600   -8.9760 O.2       9 UNK        -0.5390 
     59 N          30.2609   -0.6435  -10.2113 N.am      10 UNK        -0.4204 
     60 CA         31.3524   -0.6012  -11.1897 C.3       10 UNK         0.0237 
     61 CB         31.3060   -1.8343  -12.1178 C.3       10 UNK        -0.1985 
     62 C          32.7377   -0.3738  -10.5499 C.2       10 UNK         0.4970 
     63 O          33.7246   -0.9507  -11.0115 O.2       10 UNK        -0.4914 
     64 N          32.7894    0.4740   -9.5154 N.am      11 UNK        -0.4285 
     65 CA         34.0078    0.8415   -8.7765 C.3       11 UNK         0.1007 
     66 C          34.2278    2.3769   -8.6580 C.2       11 UNK         0.5703 
     67 N          33.5443    3.2019   -9.4429 N.am      11 UNK        -0.7361 
     68 O          35.0521    2.8324   -7.8690 O.2       11 UNK        -0.4986 
     69 C69        34.1256    0.0757   -7.4310 C.3       12 UNK        -0.0947 
     70 S70        32.7563    0.3693   -6.2602 S.3       12 UNK        -0.2240 
     71 C71        32.8129   -1.1990   -5.3317 C.3       12 UNK         0.0194 
     72 H72        26.4568   -7.4976    1.9971 H         1 UNK         0.0906 
     73 H73        25.3188   -8.0419    0.7619 H         1 UNK         0.0906 
     74 H74        26.9805   -7.6456    0.3188 H         1 UNK         0.0906 
     75 H75        27.1354   -5.6504   -0.7095 H         1 UNK         0.3140 
     76 H76        25.8480   -3.2896    0.3577 H         1 UNK         0.1085 
     77 H77        28.0915   -3.0587   -0.3942 H         1 UNK         0.0836 
     78 H78        27.1037   -2.0974   -1.4467 H         1 UNK         0.0836 
     79 H79        30.3206   -4.7092   -2.8211 H         1 UNK         0.0731 
     80 H80        30.0130   -4.1179   -1.2159 H         1 UNK         0.0731 
     81 H81        31.3917   -3.3210   -4.4277 H         1 UNK         0.1312 
     82 H82        32.2149    0.7881   -3.5081 H         1 UNK         0.1406 
     83 H83        29.6825   -1.5098   -0.9380 H         1 UNK         0.1631 
     84 H84        31.4753    1.7331   -1.4130 H         1 UNK         0.0717 
     85 H85        30.8114    0.6708   -0.2017 H         1 UNK         0.0717 
     86 H86        28.6852    3.5660   -2.9377 H         1 UNK         0.0934 
     87 H87        30.2811    2.9093   -3.1470 H         1 UNK         0.0934 
     88 H88        29.3121    0.9258   -4.3821 H         1 UNK         0.0739 
     89 H89        26.6766    2.2386   -4.5025 H         1 UNK         0.3093 
     90 H90        25.0312    0.1098   -2.7744 H         1 UNK         0.0818 
     91 H91        24.6119    2.1969   -3.9797 H         1 UNK         0.0819 
     92 H92        24.7539    1.4019   -5.5434 H         1 UNK         0.0819 
     93 H93        23.4077    1.0267   -4.4764 H         1 UNK         0.0819 
     94 H94        24.7021   -1.8839   -3.6198 H         1 UNK         0.3041 
     95 H95        24.1173   -3.2797   -6.6102 H         1 UNK         0.0784 
     96 H96        26.4490   -3.2915   -7.3885 H         1 UNK         0.0793 
     97 H97        27.0481   -3.6008   -5.7639 H         1 UNK         0.0793 
     98 H98        26.1072   -4.8287   -6.6164 H         1 UNK         0.0793 
     99 H99        25.2991   -4.3065   -4.1217 H         1 UNK         0.3024 
    100 H100       22.3175   -4.3339   -2.3221 H         1 UNK         0.1171 
    101 H101       23.5305   -6.8337   -3.6291 H         1 UNK         0.0786 
    102 H102       22.5358   -6.8057   -2.1718 H         1 UNK         0.0786 
    103 H103       21.8408   -6.3561   -3.7194 H         1 UNK         0.0786 
    104 H104       24.7702   -5.6570   -1.7955 H         1 UNK         0.2977 
    105 H105       30.9631    2.4161   -5.3390 H         1 UNK         0.3127 
    106 H106       31.8389    3.5929   -6.9668 H         1 UNK         0.0770 
    107 H107       30.8990    5.7987   -7.5485 H         1 UNK         0.0814 
    108 H108       30.7324    5.5267   -5.8284 H         1 UNK         0.0814 
    109 H109       29.3293    5.3598   -6.8745 H         1 UNK         0.0814 
    110 H110       29.7296    4.9115   -9.0199 H         1 UNK         0.2983 
    111 H111       30.3579    3.2012  -11.1387 H         1 UNK         0.0947 
    112 H112       28.7312    4.6008  -12.4298 H         1 UNK         0.0806 
    113 H113       29.7805    5.5914  -11.4316 H         1 UNK         0.0806 
    114 H114       28.1165    5.2848  -10.9314 H         1 UNK         0.0806 
    115 H115       27.5260    3.0996   -9.0267 H         1 UNK         0.3000 
    116 H116       25.9208    1.3222  -10.6076 H         1 UNK         0.0850 
    117 H117       24.9631    2.7337   -8.8007 H         1 UNK         0.0810 
    118 H118       25.9238    1.8764   -7.5933 H         1 UNK         0.0810 
    119 H119       24.6542    1.0357   -8.4687 H         1 UNK         0.0810 
    120 H120       28.5491    0.8048   -8.2976 H         1 UNK         0.3040 
    121 H121       28.2343   -2.1536   -8.3887 H         1 UNK         0.0766 
    122 H122       29.8684   -2.0817   -6.4971 H         1 UNK         0.0812 
    123 H123       28.4346   -1.1369   -6.1448 H         1 UNK         0.0812 
    124 H124       29.9290   -0.3276   -6.6098 H         1 UNK         0.0812 
    125 H125       29.5845    0.1045  -10.2901 H         1 UNK         0.3205 
    126 H126       31.1632    0.2779  -11.8075 H         1 UNK         0.0754 
    127 H127       32.0249   -1.7392  -12.9324 H         1 UNK         0.0769 
    128 H128       30.3211   -1.9527  -12.5697 H         1 UNK         0.0769 
    129 H129       31.5421   -2.7540  -11.5817 H         1 UNK         0.0769 
    130 H130       31.9306    0.9036   -9.1756 H         1 UNK         0.2981 
    131 H131       34.8694    0.5309   -9.3693 H         1 UNK         0.0541 
    132 H132       32.9011    2.8406  -10.1273 H         1 UNK         0.3459 
    133 H133       33.7149    4.1927   -9.3797 H         1 UNK         0.3459 
    134 H134       35.0649    0.3156   -6.9301 H         1 UNK         0.0612 
    135 H135       34.1736   -0.9933   -7.6445 H         1 UNK         0.0612 
    136 H136       33.8342   -1.3708   -4.9896 H         1 UNK         0.0624 
    137 H137       32.5724   -2.0082   -6.0235 H         1 UNK         0.0624 
@<TRIPOS>BOND
     1    1    2 1    
     2    1   72 1    
     3    1   73 1    
     4    1   74 1    
     5    2    3 2    
     6    2    4 am   BACKBONE|DICT|INTERRES
     7    4    5 1    
     8    4   75 1    
     9    5    6 1    
    10    5   35 1    
    11    5   76 1    
    12    6    7 1    
    13    6   77 1    
    14    6   78 1    
    15    7    8 1    
    16    8    9 1    
    17    8   79 1    
    18    8   80 1    
    19    9   10 ar   
    20    9   14 ar   
    21   10   11 ar   
    22   10   81 1    
    23   11   12 ar   
    24   11   71 1    
    25   12   13 ar   
    26   12   82 1    
    27   13   14 ar   
    28   13   15 1    
    29   14   83 1    
    30   15   16 1    
    31   15   84 1    
    32   15   85 1    
    33   16   17 1    
    34   17   18 1    
    35   17   86 1    
    36   17   87 1    
    37   18   19 1    
    38   18   37 1    
    39   18   88 1    
    40   19   20 am   BACKBONE|DICT|INTERRES
    41   19   89 1    
    42   20   21 2    
    43   20   22 1    
    44   22   23 1    
    45   22   24 1    
    46   22   90 1    
    47   23   91 1    
    48   23   92 1    
    49   23   93 1    
    50   24   25 am   BACKBONE|DICT|INTERRES
    51   24   94 1    
    52   25   26 2    
    53   25   27 1    
    54   27   28 1    
    55   27   29 1    
    56   27   95 1    
    57   28   96 1    
    58   28   97 1    
    59   28   98 1    
    60   29   30 am   BACKBONE|DICT|INTERRES
    61   29   99 1    
    62   30   31 2    
    63   30   32 1    
    64   32   33 1    
    65   32   34 1    
    66   32  100 1    
    67   33  101 1    
    68   33  102 1    
    69   33  103 1    
    70   34   35 am   BACKBONE|DICT|INTERRES
    71   34  104 1    
    72   35   36 2    
    73   37   38 2    
    74   37   39 am   BACKBONE|DICT|INTERRES
    75   39   40 1    
    76   39  105 1    
    77   40   41 1    
    78   40   42 1    
    79   40  106 1    
    80   41  107 1    
    81   41  108 1    
    82   41  109 1    
    83   42   43 2    
    84   42   44 am   BACKBONE|DICT|INTERRES
    85   44   45 1    
    86   44  110 1    
    87   45   46 1    
    88   45   47 1    
    89   45  111 1    
    90   46  112 1    
    91   46  113 1    
    92   46  114 1    
    93   47   48 2    
    94   47   49 am   BACKBONE|DICT|INTERRES
    95   49   50 1    
    96   49  115 1    
    97   50   51 1    
    98   50   52 1    
    99   50  116 1    
   100   51  117 1    
   101   51  118 1    
   102   51  119 1    
   103   52   53 2    
   104   52   54 am   BACKBONE|DICT|INTERRES
   105   54   55 1    
   106   54  120 1    
   107   55   56 1    
   108   55   57 1    
   109   55  121 1    
   110   56  122 1    
   111   56  123 1    
   112   56  124 1    
   113   57   58 2    
   114   57   59 am   BACKBONE|DICT|INTERRES
   115   59   60 1    
   116   59  125 1    
   117   60   61 1    
   118   60   62 1    
   119   60  126 1    
   120   61  127 1    
   121   61  128 1    
   122   61  129 1    
   123   62   63 2    
   124   62   64 am   BACKBONE|DICT|INTERRES
   125   64   65 1    
   126   64  130 1    
   127   65   66 1    
   128   65   69 1    
   129   65  131 1    
   130   66   67 am   BACKBONE|DICT|INTERRES
   131   66   68 2    
   132   67  132 1    
   133   67  133 1    
   134   69   70 1    
   135   69  134 1    
   136   69  135 1    
   137   70   71 1    
   138   71  136 1    
   139   71  137 1    
@<TRIPOS>SUBSTRUCTURE
     1 UNK         1 GROUP             0       ****    0 ROOT    
