@<TRIPOS>MOLECULE
3R137
137   139    1
SMALL
USER_CHARGES


@<TRIPOS>ATOM
      1 CA         29.9330   -4.4642   -7.2642 C.3       0 UNK        -0.2020 
      2 C          28.9458   -5.3616   -6.5332 C.2       0 UNK         0.4855 
      3 O          28.7280   -6.5006   -6.9446 O.2       0 UNK        -0.5197 
      4 N          28.3431   -4.8536   -5.4498 N.am      1 UNK        -0.4892 
      5 CA         27.4018   -5.5723   -4.5743 C.3       1 UNK         0.0835 
      6 C6         27.1845   -4.8552   -3.2109 C.3       12 UNK        -0.0855 
      7 S7         28.6709   -4.0558   -2.5089 S.3       12 UNK        -0.2931 
      8 C8         28.2618   -2.3297   -2.9086 C.3       12 UNK         0.0378 
      9 C9         29.3755   -1.3657   -2.5454 C.ar      12 UNK        -0.0802 
     10 C10        30.4528   -1.1638   -3.4138 C.ar      12 UNK        -0.0944 
     11 C11        31.4221   -0.1985   -3.1235 C.ar      12 UNK        -0.0787 
     12 C12        31.3005    0.5757   -1.9652 C.ar      12 UNK        -0.0862 
     13 C13        30.2263    0.3796   -1.0921 C.ar      12 UNK        -0.0733 
     14 C14        29.2850   -0.6149   -1.3718 C.ar      12 UNK        -0.0832 
     15 C15        30.0383    1.2852    0.1161 C.3       12 UNK         0.0240 
     16 S16        28.4519    2.1850    0.0406 S.3       12 UNK        -0.2522 
     17 C17        28.6193    3.1443   -1.5069 C.3       12 UNK        -0.0967 
     18 CA         28.0602    2.4207   -2.7629 C.3       5 UNK         0.0660 
     19 N          26.6954    1.9160   -2.5683 N.am      5 UNK        -0.4015 
     20 C          25.9599    1.2573   -3.4763 C.2       4 UNK         0.4946 
     21 O          26.3546    0.9800   -4.6131 O.2       4 UNK        -0.5353 
     22 CA         24.5316    0.8808   -3.0317 C.3       4 UNK         0.0277 
     23 CB         23.6878    2.1446   -2.7809 C.3       4 UNK        -0.1981 
     24 N          23.8272    0.0486   -4.0110 N.am      4 UNK        -0.4209 
     25 C          24.0946   -1.2350   -4.2812 C.2       3 UNK         0.4942 
     26 O          24.9330   -1.9058   -3.6740 O.2       3 UNK        -0.5208 
     27 CA         23.2928   -1.8789   -5.4258 C.3       3 UNK         0.0250 
     28 CB         23.0434   -0.9074   -6.6034 C.3       3 UNK        -0.1990 
     29 N          24.0091   -3.0668   -5.8873 N.am      3 UNK        -0.4232 
     30 C          23.5052   -4.0643   -6.6246 C.2       2 UNK         0.4993 
     31 O          22.3269   -4.1207   -6.9790 O.2       2 UNK        -0.5286 
     32 CA         24.4701   -5.1795   -7.0700 C.3       2 UNK         0.0209 
     33 CB         24.7579   -5.0587   -8.5766 C.3       2 UNK        -0.1931 
     34 N          25.7471   -5.1489   -6.3527 N.am      2 UNK        -0.4546 
     35 C          26.0267   -5.8327   -5.2347 C.2       1 UNK         0.5154 
     36 O          25.2374   -6.6138   -4.7016 O.2       1 UNK        -0.5181 
     37 C          28.1553    3.3391   -3.9953 C.2       5 UNK         0.5014 
     38 O          27.3127    4.2258   -4.1552 O.2       5 UNK        -0.5248 
     39 N          29.1517    3.0820   -4.8546 N.am      6 UNK        -0.4434 
     40 CA         29.4049    3.6896   -6.1701 C.3       6 UNK         0.0363 
     41 CB         29.6077    5.2144   -6.0771 C.3       6 UNK        -0.1936 
     42 C          28.3612    3.3258   -7.2437 C.2       6 UNK         0.5081 
     43 O          28.7513    3.0345   -8.3738 O.2       6 UNK        -0.5248 
     44 N          27.0706    3.3088   -6.8827 N.am      7 UNK        -0.4718 
     45 CA         25.9364    2.9459   -7.7409 C.3       7 UNK         0.0273 
     46 CB         24.6253    3.1480   -6.9641 C.3       7 UNK        -0.1935 
     47 C          26.0153    1.5136   -8.2975 C.2       7 UNK         0.5018 
     48 O          25.6039    1.2841   -9.4351 O.2       7 UNK        -0.5186 
     49 N          26.5687    0.5885   -7.5016 N.am      8 UNK        -0.4240 
     50 CA         26.8557   -0.7948   -7.8901 C.3       8 UNK         0.0235 
     51 CB         27.2516   -1.5825   -6.6340 C.3       8 UNK        -0.2000 
     52 C          27.9685   -0.9433   -8.9449 C.2       8 UNK         0.4941 
     53 O          28.0580   -2.0104   -9.5543 O.2       8 UNK        -0.5273 
     54 N          28.8009    0.0974   -9.1119 N.am      9 UNK        -0.4262 
     55 CA         30.0469    0.1360   -9.8856 C.3       9 UNK         0.0264 
     56 CB         29.7827   -0.1461  -11.3821 C.3       9 UNK        -0.1955 
     57 C          31.1413   -0.7723   -9.2852 C.2       9 UNK         0.5031 
     58 O          30.9757   -1.3085   -8.1875 O.2       9 UNK        -0.5390 
     59 N          32.2690   -0.8866  -10.0029 N.am      10 UNK        -0.4204 
     60 CA         33.4548   -1.6967   -9.6792 C.3       10 UNK         0.0237 
     61 CB         33.1038   -3.2009   -9.6678 C.3       10 UNK        -0.1985 
     62 C          34.2158   -1.2664   -8.4050 C.2       10 UNK         0.4970 
     63 O          35.0532   -2.0299   -7.9206 O.2       10 UNK        -0.4914 
     64 N          33.9484   -0.0546   -7.9000 N.am      11 UNK        -0.4285 
     65 CA         34.6191    0.5322   -6.7282 C.3       11 UNK         0.1007 
     66 C          36.0590    1.0572   -7.0042 C.2       11 UNK         0.5703 
     67 N          36.5083    1.1569   -8.2501 N.am      11 UNK        -0.7361 
     68 O          36.7870    1.3717   -6.0656 O.2       11 UNK        -0.4986 
     69 C69        33.7511    1.6270   -6.0508 C.3       12 UNK        -0.0947 
     70 S70        32.1169    1.0366   -5.4954 S.3       12 UNK        -0.2240 
     71 C71        32.5948    0.0201   -4.0652 C.3       12 UNK         0.0194 
     72 H72        30.1070   -3.5278   -6.7338 H         1 UNK         0.0906 
     73 H73        30.8914   -4.9702   -7.3754 H         1 UNK         0.0906 
     74 H74        29.5588   -4.2203   -8.2586 H         1 UNK         0.0906 
     75 H75        28.6130   -3.9392   -5.1187 H         1 UNK         0.3140 
     76 H76        27.8411   -6.5514   -4.3699 H         1 UNK         0.1085 
     77 H77        26.8181   -5.5756   -2.4771 H         1 UNK         0.0836 
     78 H78        26.3953   -4.1043   -3.2860 H         1 UNK         0.0836 
     79 H79        27.3431   -2.0515   -2.3892 H         1 UNK         0.0731 
     80 H80        28.0412   -2.2397   -3.9714 H         1 UNK         0.0731 
     81 H81        30.5277   -1.7410   -4.3255 H         1 UNK         0.1312 
     82 H82        32.0327    1.3434   -1.7544 H         1 UNK         0.1406 
     83 H83        28.4441   -0.7558   -0.7059 H         1 UNK         0.1631 
     84 H84        30.8540    2.0048    0.2007 H         1 UNK         0.0717 
     85 H85        30.0621    0.6805    1.0236 H         1 UNK         0.0717 
     86 H86        28.0994    4.0928   -1.3558 H         1 UNK         0.0934 
     87 H87        29.6707    3.4011   -1.6509 H         1 UNK         0.0934 
     88 H88        28.6754    1.5458   -2.9680 H         1 UNK         0.0739 
     89 H89        26.2909    2.1130   -1.6653 H         1 UNK         0.3093 
     90 H90        24.6097    0.3161   -2.1001 H         1 UNK         0.0818 
     91 H91        24.1162    2.7639   -1.9922 H         1 UNK         0.0819 
     92 H92        23.6146    2.7646   -3.6755 H         1 UNK         0.0819 
     93 H93        22.6753    1.8897   -2.4667 H         1 UNK         0.0819 
     94 H94        23.1436    0.5200   -4.5834 H         1 UNK         0.3041 
     95 H95        22.3332   -2.1945   -5.0117 H         1 UNK         0.0784 
     96 H96        22.3901   -0.0840   -6.3141 H         1 UNK         0.0793 
     97 H97        23.9739   -0.4766   -6.9714 H         1 UNK         0.0793 
     98 H98        22.5573   -1.4059   -7.4419 H         1 UNK         0.0793 
     99 H99        24.9564   -3.1373   -5.5421 H         1 UNK         0.3024 
    100 H100       23.9697   -6.1340   -6.8902 H         1 UNK         0.1171 
    101 H101       25.2465   -4.1144   -8.8217 H         1 UNK         0.0786 
    102 H102       25.4003   -5.8686   -8.9231 H         1 UNK         0.0786 
    103 H103       23.8354   -5.1087   -9.1569 H         1 UNK         0.0786 
    104 H104       26.4752   -4.5669   -6.7387 H         1 UNK         0.2977 
    105 H105       29.7692    2.3117   -4.6325 H         1 UNK         0.3127 
    106 H106       30.3505    3.2636   -6.5084 H         1 UNK         0.0770 
    107 H107       28.6939    5.7352   -5.7903 H         1 UNK         0.0814 
    108 H108       29.9192    5.6210   -7.0401 H         1 UNK         0.0814 
    109 H109       30.3814    5.4679   -5.3526 H         1 UNK         0.0814 
    110 H110       26.8595    3.5671   -5.9228 H         1 UNK         0.2983 
    111 H111       25.9415    3.6276   -8.5939 H         1 UNK         0.0947 
    112 H112       23.7615    2.9207   -7.5903 H         1 UNK         0.0806 
    113 H113       24.5182    4.1786   -6.6255 H         1 UNK         0.0806 
    114 H114       24.5725    2.5000   -6.0889 H         1 UNK         0.0806 
    115 H115       26.7798    0.8489   -6.5409 H         1 UNK         0.3000 
    116 H116       25.9437   -1.2283   -8.3055 H         1 UNK         0.0850 
    117 H117       28.1907   -1.2165   -6.2155 H         1 UNK         0.0810 
    118 H118       27.3846   -2.6366   -6.8703 H         1 UNK         0.0810 
    119 H119       26.4923   -1.5082   -5.8594 H         1 UNK         0.0810 
    120 H120       28.6163    0.9373   -8.5756 H         1 UNK         0.3040 
    121 H121       30.4124    1.1602   -9.7971 H         1 UNK         0.0766 
    122 H122       29.5721   -1.2001  -11.5666 H         1 UNK         0.0812 
    123 H123       28.9334    0.4313  -11.7479 H         1 UNK         0.0812 
    124 H124       30.6389    0.1272  -11.9989 H         1 UNK         0.0812 
    125 H125       32.3207   -0.3823  -10.8775 H         1 UNK         0.3205 
    126 H126       34.1539   -1.5358  -10.5010 H         1 UNK         0.0754 
    127 H127       34.0021   -3.8151   -9.5941 H         1 UNK         0.0769 
    128 H128       32.5872   -3.4954  -10.5813 H         1 UNK         0.0769 
    129 H129       32.4648   -3.4598   -8.8232 H         1 UNK         0.0769 
    130 H130       33.2387    0.5107   -8.3386 H         1 UNK         0.2981 
    131 H131       34.7485   -0.2690   -5.9988 H         1 UNK         0.0541 
    132 H132       37.4445    1.4937   -8.4108 H         1 UNK         0.3459 
    133 H133       35.9226    0.9027   -9.0286 H         1 UNK         0.3459 
    134 H134       33.5896    2.4577   -6.7399 H         1 UNK         0.0612 
    135 H135       34.2646    2.0511   -5.1858 H         1 UNK         0.0612 
    136 H136       32.9703   -0.9415   -4.4180 H         1 UNK         0.0624 
    137 H137       33.4183    0.4974   -3.5318 H         1 UNK         0.0624 
@<TRIPOS>BOND
     1    1    2 1    
     2    1   72 1    
     3    1   73 1    
     4    1   74 1    
     5    2    3 2    
     6    2    4 am   BACKBONE|DICT|INTERRES
     7    4    5 1    
     8    4   75 1    
     9    5    6 1    
    10    5   35 1    
    11    5   76 1    
    12    6    7 1    
    13    6   77 1    
    14    6   78 1    
    15    7    8 1    
    16    8    9 1    
    17    8   79 1    
    18    8   80 1    
    19    9   10 ar   
    20    9   14 ar   
    21   10   11 ar   
    22   10   81 1    
    23   11   12 ar   
    24   11   71 1    
    25   12   13 ar   
    26   12   82 1    
    27   13   14 ar   
    28   13   15 1    
    29   14   83 1    
    30   15   16 1    
    31   15   84 1    
    32   15   85 1    
    33   16   17 1    
    34   17   18 1    
    35   17   86 1    
    36   17   87 1    
    37   18   19 1    
    38   18   37 1    
    39   18   88 1    
    40   19   20 am   BACKBONE|DICT|INTERRES
    41   19   89 1    
    42   20   21 2    
    43   20   22 1    
    44   22   23 1    
    45   22   24 1    
    46   22   90 1    
    47   23   91 1    
    48   23   92 1    
    49   23   93 1    
    50   24   25 am   BACKBONE|DICT|INTERRES
    51   24   94 1    
    52   25   26 2    
    53   25   27 1    
    54   27   28 1    
    55   27   29 1    
    56   27   95 1    
    57   28   96 1    
    58   28   97 1    
    59   28   98 1    
    60   29   30 am   BACKBONE|DICT|INTERRES
    61   29   99 1    
    62   30   31 2    
    63   30   32 1    
    64   32   33 1    
    65   32   34 1    
    66   32  100 1    
    67   33  101 1    
    68   33  102 1    
    69   33  103 1    
    70   34   35 am   BACKBONE|DICT|INTERRES
    71   34  104 1    
    72   35   36 2    
    73   37   38 2    
    74   37   39 am   BACKBONE|DICT|INTERRES
    75   39   40 1    
    76   39  105 1    
    77   40   41 1    
    78   40   42 1    
    79   40  106 1    
    80   41  107 1    
    81   41  108 1    
    82   41  109 1    
    83   42   43 2    
    84   42   44 am   BACKBONE|DICT|INTERRES
    85   44   45 1    
    86   44  110 1    
    87   45   46 1    
    88   45   47 1    
    89   45  111 1    
    90   46  112 1    
    91   46  113 1    
    92   46  114 1    
    93   47   48 2    
    94   47   49 am   BACKBONE|DICT|INTERRES
    95   49   50 1    
    96   49  115 1    
    97   50   51 1    
    98   50   52 1    
    99   50  116 1    
   100   51  117 1    
   101   51  118 1    
   102   51  119 1    
   103   52   53 2    
   104   52   54 am   BACKBONE|DICT|INTERRES
   105   54   55 1    
   106   54  120 1    
   107   55   56 1    
   108   55   57 1    
   109   55  121 1    
   110   56  122 1    
   111   56  123 1    
   112   56  124 1    
   113   57   58 2    
   114   57   59 am   BACKBONE|DICT|INTERRES
   115   59   60 1    
   116   59  125 1    
   117   60   61 1    
   118   60   62 1    
   119   60  126 1    
   120   61  127 1    
   121   61  128 1    
   122   61  129 1    
   123   62   63 2    
   124   62   64 am   BACKBONE|DICT|INTERRES
   125   64   65 1    
   126   64  130 1    
   127   65   66 1    
   128   65   69 1    
   129   65  131 1    
   130   66   67 am   BACKBONE|DICT|INTERRES
   131   66   68 2    
   132   67  132 1    
   133   67  133 1    
   134   69   70 1    
   135   69  134 1    
   136   69  135 1    
   137   70   71 1    
   138   71  136 1    
   139   71  137 1    
@<TRIPOS>SUBSTRUCTURE
     1 UNK         1 GROUP             0       ****    0 ROOT    
