@<TRIPOS>MOLECULE
3R137
137   139    1
SMALL
USER_CHARGES


@<TRIPOS>ATOM
      1 CA         26.4742    1.1802   -1.0719 C.3       0 UNK        -0.2020 
      2 C          26.8471   -0.1284   -1.7499 C.2       0 UNK         0.4855 
      3 O          26.8527   -0.1977   -2.9793 O.2       0 UNK        -0.5197 
      4 N          27.1645   -1.1647   -0.9615 N.am      1 UNK        -0.4892 
      5 CA         27.5105   -2.5111   -1.4390 C.3       1 UNK         0.0835 
      6 C6         28.0084   -3.4067   -0.2780 C.3       12 UNK        -0.0855 
      7 S7         28.9821   -4.8410   -0.8479 S.3       12 UNK        -0.2931 
      8 C8         30.6868   -4.2962   -0.5151 C.3       12 UNK         0.0378 
      9 C9         31.2026   -3.3527   -1.5924 C.ar      12 UNK        -0.0802 
     10 C10        31.8741   -3.8678   -2.7043 C.ar      12 UNK        -0.0944 
     11 C11        32.3946   -3.0127   -3.6785 C.ar      12 UNK        -0.0787 
     12 C12        32.2301   -1.6308   -3.5386 C.ar      12 UNK        -0.0862 
     13 C13        31.5547   -1.0970   -2.4326 C.ar      12 UNK        -0.0733 
     14 C14        31.0482   -1.9686   -1.4623 C.ar      12 UNK        -0.0832 
     15 C15        31.4401    0.4115   -2.2103 C.3       12 UNK         0.0240 
     16 S16        31.3124    1.4020   -3.7410 S.3       12 UNK        -0.2522 
     17 C17        29.6127    2.0637   -3.6803 C.3       12 UNK        -0.0967 
     18 CA         28.8567    1.7665   -4.9944 C.3       5 UNK         0.0660 
     19 N          28.5353    0.3474   -5.1410 N.am      5 UNK        -0.4015 
     20 C          28.4845   -0.2838   -6.3150 C.2       4 UNK         0.4946 
     21 O          28.7463    0.2548   -7.3916 O.2       4 UNK        -0.5353 
     22 CA         28.0741   -1.7628   -6.2854 C.3       4 UNK         0.0277 
     23 CB         29.0935   -2.5907   -5.4866 C.3       4 UNK        -0.1981 
     24 N          26.7200   -2.0188   -5.7795 N.am      4 UNK        -0.4209 
     25 C          25.5937   -1.4650   -6.2622 C.2       3 UNK         0.4942 
     26 O          25.5850   -0.5424   -7.0736 O.2       3 UNK        -0.5208 
     27 CA         24.2382   -2.0258   -5.8025 C.3       3 UNK         0.0250 
     28 CB         23.6656   -2.9847   -6.8599 C.3       3 UNK        -0.1990 
     29 N          24.3241   -2.7128   -4.5187 N.am      3 UNK        -0.4232 
     30 C          23.4385   -2.6421   -3.5230 C.2       2 UNK         0.4993 
     31 O          22.3797   -2.0162   -3.5805 O.2       2 UNK        -0.5286 
     32 CA         23.8122   -3.3865   -2.2288 C.3       2 UNK         0.0209 
     33 CB         23.6995   -4.9145   -2.4026 C.3       2 UNK        -0.1931 
     34 N          25.1228   -2.9973   -1.6841 N.am      2 UNK        -0.4546 
     35 C          26.3469   -3.1655   -2.2124 C.2       1 UNK         0.5154 
     36 O          26.5670   -3.7302   -3.2874 O.2       1 UNK        -0.5181 
     37 C          27.5910    2.6309   -5.1326 C.2       5 UNK         0.5014 
     38 O          27.7072    3.7803   -5.5564 O.2       5 UNK        -0.5248 
     39 N          26.4094    2.0742   -4.8228 N.am      6 UNK        -0.4434 
     40 CA         25.1102    2.7406   -4.9617 C.3       6 UNK         0.0363 
     41 CB         24.0071    1.8519   -4.3683 C.3       6 UNK        -0.1936 
     42 C          24.7766    3.1425   -6.4118 C.2       6 UNK         0.5081 
     43 O          24.2744    4.2454   -6.6284 O.2       6 UNK        -0.5248 
     44 N          25.0959    2.2699   -7.3786 N.am      7 UNK        -0.4718 
     45 CA         24.9810    2.5411   -8.8170 C.3       7 UNK         0.0273 
     46 CB         24.6343    1.2320   -9.5478 C.3       7 UNK        -0.1935 
     47 C          26.2580    3.1665   -9.4127 C.2       7 UNK         0.5018 
     48 O          26.2849    3.4272  -10.6161 O.2       7 UNK        -0.5186 
     49 N          27.2901    3.3770   -8.5802 N.am      8 UNK        -0.4240 
     50 CA         28.6201    3.9059   -8.9093 C.3       8 UNK         0.0235 
     51 CB         28.5295    5.3805   -9.3570 C.3       8 UNK        -0.2000 
     52 C          29.4165    3.0258   -9.8955 C.2       8 UNK         0.4941 
     53 O          30.2333    3.5472  -10.6570 O.2       8 UNK        -0.5273 
     54 N          29.1851    1.7065   -9.8542 N.am      9 UNK        -0.4262 
     55 CA         29.9318    0.7092  -10.6238 C.3       9 UNK         0.0264 
     56 CB         29.0533   -0.5361  -10.8291 C.3       9 UNK        -0.1955 
     57 C          31.2507    0.3288   -9.9317 C.2       9 UNK         0.5031 
     58 O          32.2241    0.0150  -10.6183 O.2       9 UNK        -0.5390 
     59 N          31.2461    0.3397   -8.5887 N.am      10 UNK        -0.4204 
     60 CA         32.3580    0.0414   -7.6760 C.3       10 UNK         0.0237 
     61 CB         33.3919    1.1855   -7.7031 C.3       10 UNK        -0.1985 
     62 C          32.9896   -1.3455   -7.9136 C.2       10 UNK         0.4970 
     63 O          34.2044   -1.5005   -7.7784 O.2       10 UNK        -0.4914 
     64 N          32.1437   -2.3183   -8.2796 N.am      11 UNK        -0.4285 
     65 CA         32.5007   -3.6952   -8.6631 C.3       11 UNK         0.1007 
     66 C          33.3017   -3.8090   -9.9978 C.2       11 UNK         0.5703 
     67 N          33.3832   -2.7700  -10.8226 N.am      11 UNK        -0.7361 
     68 O          33.8318   -4.8716  -10.3148 O.2       11 UNK        -0.4986 
     69 C69        33.1389   -4.5204   -7.5057 C.3       12 UNK        -0.0947 
     70 S70        32.1171   -4.5205   -5.9933 S.3       12 UNK        -0.2240 
     71 C71        33.1779   -3.5775   -4.8548 C.3       12 UNK         0.0194 
     72 H72        25.3943    1.3206   -1.1005 H         1 UNK         0.0906 
     73 H73        26.7950    1.2028   -0.0307 H         1 UNK         0.0906 
     74 H74        26.9384    2.0210   -1.5859 H         1 UNK         0.0906 
     75 H75        27.1453   -1.0421    0.0415 H         1 UNK         0.3140 
     76 H76        28.3290   -2.3864   -2.1501 H         1 UNK         0.1085 
     77 H77        27.1733   -3.7692    0.3250 H         1 UNK         0.0836 
     78 H78        28.6244   -2.8240    0.4081 H         1 UNK         0.0836 
     79 H79        31.3271   -5.1784   -0.4656 H         1 UNK         0.0731 
     80 H80        30.7500   -3.8296    0.4691 H         1 UNK         0.0731 
     81 H81        32.0057   -4.9365   -2.8070 H         1 UNK         0.1312 
     82 H82        32.6560   -0.9704   -4.2805 H         1 UNK         0.1406 
     83 H83        30.5491   -1.5678   -0.5905 H         1 UNK         0.1631 
     84 H84        30.6019    0.6349   -1.5495 H         1 UNK         0.0717 
     85 H85        32.3340    0.7371   -1.6770 H         1 UNK         0.0717 
     86 H86        29.0693    1.6665   -2.8234 H         1 UNK         0.0934 
     87 H87        29.6951    3.1402   -3.5155 H         1 UNK         0.0934 
     88 H88        29.5115    2.0663   -5.8163 H         1 UNK         0.0739 
     89 H89        28.2060   -0.1312   -4.3074 H         1 UNK         0.3093 
     90 H90        28.0965   -2.1153   -7.3185 H         1 UNK         0.0818 
     91 H91        30.1103   -2.3809   -5.8198 H         1 UNK         0.0819 
     92 H92        28.9260   -3.6605   -5.6123 H         1 UNK         0.0819 
     93 H93        29.0561   -2.3725   -4.4194 H         1 UNK         0.0819 
     94 H94        26.6556   -2.7317   -5.0637 H         1 UNK         0.3041 
     95 H95        23.5578   -1.1777   -5.7148 H         1 UNK         0.0784 
     96 H96        23.5879   -2.4942   -7.8314 H         1 UNK         0.0793 
     97 H97        24.2947   -3.8666   -6.9868 H         1 UNK         0.0793 
     98 H98        22.6656   -3.3224   -6.5872 H         1 UNK         0.0793 
     99 H99        25.1725   -3.2357   -4.3178 H         1 UNK         0.3024 
    100 H100       23.0761   -3.0902   -1.4791 H         1 UNK         0.1171 
    101 H101       23.8850   -5.4331   -1.4620 H         1 UNK         0.0786 
    102 H102       22.6987   -5.1942   -2.7343 H         1 UNK         0.0786 
    103 H103       24.4032   -5.3010   -3.1404 H         1 UNK         0.0786 
    104 H104       25.0782   -2.4647   -0.8263 H         1 UNK         0.2977 
    105 H105       26.4070    1.1362   -4.4353 H         1 UNK         0.3127 
    106 H106       25.1539    3.6590   -4.3723 H         1 UNK         0.0770 
    107 H107       23.9248    0.9064   -4.9007 H         1 UNK         0.0814 
    108 H108       23.0356    2.3444   -4.4270 H         1 UNK         0.0814 
    109 H109       24.1946    1.6295   -3.3182 H         1 UNK         0.0814 
    110 H110       25.4505    1.3488   -7.1267 H         1 UNK         0.2983 
    111 H111       24.1658    3.2474   -8.9887 H         1 UNK         0.0947 
    112 H112       24.4196    1.4165  -10.6011 H         1 UNK         0.0806 
    113 H113       23.7539    0.7554   -9.1163 H         1 UNK         0.0806 
    114 H114       25.4572    0.5173   -9.5057 H         1 UNK         0.0806 
    115 H115       27.1424    3.1674   -7.6010 H         1 UNK         0.3000 
    116 H116       29.1865    3.8853   -7.9771 H         1 UNK         0.0850 
    117 H117       29.5218    5.8219   -9.4569 H         1 UNK         0.0810 
    118 H118       27.9820    5.9814   -8.6308 H         1 UNK         0.0810 
    119 H119       28.0311    5.4813  -10.3215 H         1 UNK         0.0810 
    120 H120       28.5502    1.3479   -9.1490 H         1 UNK         0.3040 
    121 H121       30.1743    1.1207  -11.6060 H         1 UNK         0.0766 
    122 H122       28.1411   -0.2894  -11.3728 H         1 UNK         0.0812 
    123 H123       28.7632   -0.9916   -9.8815 H         1 UNK         0.0812 
    124 H124       29.5810   -1.2945  -11.4092 H         1 UNK         0.0812 
    125 H125       30.3479    0.5147   -8.1378 H         1 UNK         0.3205 
    126 H126       31.9284    0.0085   -6.6734 H         1 UNK         0.0754 
    127 H127       34.1620    1.0377   -6.9449 H         1 UNK         0.0769 
    128 H128       32.9215    2.1477   -7.5004 H         1 UNK         0.0769 
    129 H129       33.8920    1.2530   -8.6700 H         1 UNK         0.0769 
    130 H130       31.1685   -2.0832   -8.3810 H         1 UNK         0.2981 
    131 H131       31.5462   -4.1702   -8.8917 H         1 UNK         0.0541 
    132 H132       32.9617   -1.8762  -10.5940 H         1 UNK         0.3459 
    133 H133       33.8948   -2.8716  -11.6843 H         1 UNK         0.3459 
    134 H134       33.2584   -5.5623   -7.8069 H         1 UNK         0.0612 
    135 H135       34.1434   -4.1593   -7.2807 H         1 UNK         0.0612 
    136 H136       33.6711   -2.7705   -5.3966 H         1 UNK         0.0624 
    137 H137       33.9717   -4.2286   -4.4865 H         1 UNK         0.0624 
@<TRIPOS>BOND
     1    1    2 1    
     2    1   72 1    
     3    1   73 1    
     4    1   74 1    
     5    2    3 2    
     6    2    4 am   BACKBONE|DICT|INTERRES
     7    4    5 1    
     8    4   75 1    
     9    5    6 1    
    10    5   35 1    
    11    5   76 1    
    12    6    7 1    
    13    6   77 1    
    14    6   78 1    
    15    7    8 1    
    16    8    9 1    
    17    8   79 1    
    18    8   80 1    
    19    9   10 ar   
    20    9   14 ar   
    21   10   11 ar   
    22   10   81 1    
    23   11   12 ar   
    24   11   71 1    
    25   12   13 ar   
    26   12   82 1    
    27   13   14 ar   
    28   13   15 1    
    29   14   83 1    
    30   15   16 1    
    31   15   84 1    
    32   15   85 1    
    33   16   17 1    
    34   17   18 1    
    35   17   86 1    
    36   17   87 1    
    37   18   19 1    
    38   18   37 1    
    39   18   88 1    
    40   19   20 am   BACKBONE|DICT|INTERRES
    41   19   89 1    
    42   20   21 2    
    43   20   22 1    
    44   22   23 1    
    45   22   24 1    
    46   22   90 1    
    47   23   91 1    
    48   23   92 1    
    49   23   93 1    
    50   24   25 am   BACKBONE|DICT|INTERRES
    51   24   94 1    
    52   25   26 2    
    53   25   27 1    
    54   27   28 1    
    55   27   29 1    
    56   27   95 1    
    57   28   96 1    
    58   28   97 1    
    59   28   98 1    
    60   29   30 am   BACKBONE|DICT|INTERRES
    61   29   99 1    
    62   30   31 2    
    63   30   32 1    
    64   32   33 1    
    65   32   34 1    
    66   32  100 1    
    67   33  101 1    
    68   33  102 1    
    69   33  103 1    
    70   34   35 am   BACKBONE|DICT|INTERRES
    71   34  104 1    
    72   35   36 2    
    73   37   38 2    
    74   37   39 am   BACKBONE|DICT|INTERRES
    75   39   40 1    
    76   39  105 1    
    77   40   41 1    
    78   40   42 1    
    79   40  106 1    
    80   41  107 1    
    81   41  108 1    
    82   41  109 1    
    83   42   43 2    
    84   42   44 am   BACKBONE|DICT|INTERRES
    85   44   45 1    
    86   44  110 1    
    87   45   46 1    
    88   45   47 1    
    89   45  111 1    
    90   46  112 1    
    91   46  113 1    
    92   46  114 1    
    93   47   48 2    
    94   47   49 am   BACKBONE|DICT|INTERRES
    95   49   50 1    
    96   49  115 1    
    97   50   51 1    
    98   50   52 1    
    99   50  116 1    
   100   51  117 1    
   101   51  118 1    
   102   51  119 1    
   103   52   53 2    
   104   52   54 am   BACKBONE|DICT|INTERRES
   105   54   55 1    
   106   54  120 1    
   107   55   56 1    
   108   55   57 1    
   109   55  121 1    
   110   56  122 1    
   111   56  123 1    
   112   56  124 1    
   113   57   58 2    
   114   57   59 am   BACKBONE|DICT|INTERRES
   115   59   60 1    
   116   59  125 1    
   117   60   61 1    
   118   60   62 1    
   119   60  126 1    
   120   61  127 1    
   121   61  128 1    
   122   61  129 1    
   123   62   63 2    
   124   62   64 am   BACKBONE|DICT|INTERRES
   125   64   65 1    
   126   64  130 1    
   127   65   66 1    
   128   65   69 1    
   129   65  131 1    
   130   66   67 am   BACKBONE|DICT|INTERRES
   131   66   68 2    
   132   67  132 1    
   133   67  133 1    
   134   69   70 1    
   135   69  134 1    
   136   69  135 1    
   137   70   71 1    
   138   71  136 1    
   139   71  137 1    
@<TRIPOS>SUBSTRUCTURE
     1 UNK         1 GROUP             0       ****    0 ROOT    
