@<TRIPOS>MOLECULE
3R137
137   139    1
SMALL
USER_CHARGES


@<TRIPOS>ATOM
      1 CA         25.3470   -3.1933    1.5255 C.3       0 UNK        -0.2020 
      2 C          26.4839   -3.7013    0.6424 C.2       0 UNK         0.4855 
      3 O          26.8183   -4.8820    0.7103 O.2       0 UNK        -0.5197 
      4 N          27.1119   -2.8637   -0.1957 N.am      1 UNK        -0.4892 
      5 CA         26.8219   -1.4373   -0.4167 C.3       1 UNK         0.0835 
      6 C6         28.0041   -0.7109   -1.1078 C.3       12 UNK        -0.0855 
      7 S7         29.5450   -0.7910   -0.1350 S.3       12 UNK        -0.2931 
      8 C8         30.7412   -0.0576   -1.3070 C.3       12 UNK         0.0378 
      9 C9         31.4701   -1.0525   -2.2143 C.ar      12 UNK        -0.0802 
     10 C10        32.7081   -0.6823   -2.7519 C.ar      12 UNK        -0.0944 
     11 C11        33.4236   -1.5542   -3.5786 C.ar      12 UNK        -0.0787 
     12 C12        32.8905   -2.8097   -3.8764 C.ar      12 UNK        -0.0862 
     13 C13        31.6468   -3.1889   -3.3663 C.ar      12 UNK        -0.0733 
     14 C14        30.9450   -2.3118   -2.5344 C.ar      12 UNK        -0.0832 
     15 C15        31.0729   -4.5542   -3.7085 C.3       12 UNK         0.0240 
     16 S16        30.3391   -4.5763   -5.3728 S.3       12 UNK        -0.2522 
     17 C17        28.7551   -3.7098   -5.1108 C.3       12 UNK        -0.0967 
     18 CA         28.5054   -2.6042   -6.1721 C.3       5 UNK         0.0660 
     19 N          27.1118   -2.6105   -6.6320 N.am      5 UNK        -0.4015 
     20 C          26.6876   -3.1560   -7.7819 C.2       4 UNK         0.4946 
     21 O          27.4351   -3.7121   -8.5876 O.2       4 UNK        -0.5353 
     22 CA         25.1797   -3.1050   -8.1081 C.3       4 UNK         0.0277 
     23 CB         24.5676   -4.5145   -8.0350 C.3       4 UNK        -0.1981 
     24 N          24.4040   -2.2134   -7.2450 N.am      4 UNK        -0.4209 
     25 C          24.4384   -0.8746   -7.2809 C.2       3 UNK         0.4942 
     26 O          25.0750   -0.2288   -8.1114 O.2       3 UNK        -0.5208 
     27 CA         23.6590   -0.1249   -6.1817 C.3       3 UNK         0.0250 
     28 CB         22.3077    0.3637   -6.7273 C.3       3 UNK        -0.1990 
     29 N          23.4360   -0.8783   -4.9357 N.am      3 UNK        -0.4232 
     30 C          24.3911   -1.4460   -4.1854 C.2       2 UNK         0.4993 
     31 O          25.5802   -1.4826   -4.5118 O.2       2 UNK        -0.5286 
     32 CA         23.9446   -2.1464   -2.8931 C.3       2 UNK         0.0209 
     33 CB         23.4464   -3.5675   -3.2033 C.3       2 UNK        -0.1931 
     34 N          25.0573   -2.2344   -1.9450 N.am      2 UNK        -0.4546 
     35 C          25.5250   -1.2063   -1.2234 C.2       1 UNK         0.5154 
     36 O          24.9760   -0.1049   -1.1776 O.2       1 UNK        -0.5181 
     37 C          28.9465   -1.2045   -5.6929 C.2       5 UNK         0.5014 
     38 O          30.1150   -0.8570   -5.8607 O.2       5 UNK        -0.5248 
     39 N          28.0180   -0.4029   -5.1474 N.am      6 UNK        -0.4434 
     40 CA         28.2104    1.0006   -4.7621 C.3       6 UNK         0.0363 
     41 CB         26.9314    1.4972   -4.0645 C.3       6 UNK        -0.1936 
     42 C          28.5613    1.9164   -5.9520 C.2       6 UNK         0.5081 
     43 O          28.5836    1.4660   -7.0971 O.2       6 UNK        -0.5248 
     44 N          28.7994    3.2047   -5.6680 N.am      7 UNK        -0.4718 
     45 CA         29.2740    4.2473   -6.5950 C.3       7 UNK         0.0273 
     46 CB         29.3110    5.5908   -5.8483 C.3       7 UNK        -0.1935 
     47 C          28.5168    4.4050   -7.9319 C.2       7 UNK         0.5018 
     48 O          29.0963    4.9359   -8.8795 O.2       7 UNK        -0.5186 
     49 N          27.2641    3.9324   -8.0030 N.am      8 UNK        -0.4240 
     50 CA         26.4829    3.8204   -9.2391 C.3       8 UNK         0.0235 
     51 CB         25.0309    3.4533   -8.8909 C.3       8 UNK        -0.2000 
     52 C          27.0744    2.8066  -10.2409 C.2       8 UNK         0.4941 
     53 O          27.0007    3.0435  -11.4474 O.2       8 UNK        -0.5273 
     54 N          27.6578    1.7161   -9.7267 N.am      9 UNK        -0.4262 
     55 CA         28.3897    0.7007  -10.4875 C.3       9 UNK         0.0264 
     56 CB         27.9750   -0.6903   -9.9884 C.3       9 UNK        -0.1955 
     57 C          29.9113    0.8727  -10.3454 C.2       9 UNK         0.5031 
     58 O          30.6370    0.5347  -11.2806 O.2       9 UNK        -0.5390 
     59 N          30.3566    1.3902   -9.1902 N.am      10 UNK        -0.4204 
     60 CA         31.7371    1.6764   -8.7916 C.3       10 UNK         0.0237 
     61 CB         32.3606    2.7645   -9.6916 C.3       10 UNK        -0.1985 
     62 C          32.5887    0.3994   -8.6942 C.2       10 UNK         0.4970 
     63 O          33.5371    0.2251   -9.4618 O.2       10 UNK        -0.4914 
     64 N          32.2221   -0.4657   -7.7402 N.am      11 UNK        -0.4285 
     65 CA         32.9024   -1.7220   -7.3812 C.3       11 UNK         0.1007 
     66 C          32.7398   -2.8748   -8.4160 C.2       11 UNK         0.5703 
     67 N          31.9075   -2.7383   -9.4418 N.am      11 UNK        -0.7361 
     68 O          33.3575   -3.9274   -8.2729 O.2       11 UNK        -0.4986 
     69 C69        34.3814   -1.5305   -6.9270 C.3       12 UNK        -0.0947 
     70 S70        34.6192   -0.2079   -5.6862 S.3       12 UNK        -0.2240 
     71 C71        34.7790   -1.1433   -4.1339 C.3       12 UNK         0.0194 
     72 H72        25.6595   -2.3350    2.1188 H         1 UNK         0.0906 
     73 H73        24.4801   -2.9156    0.9273 H         1 UNK         0.0906 
     74 H74        25.0308   -3.9711    2.2204 H         1 UNK         0.0906 
     75 H75        27.8872   -3.2272   -0.7299 H         1 UNK         0.3140 
     76 H76        26.6741   -0.9612    0.5545 H         1 UNK         0.1085 
     77 H77        28.1796   -1.1158   -2.1064 H         1 UNK         0.0836 
     78 H78        27.7694    0.3467   -1.2446 H         1 UNK         0.0836 
     79 H79        31.4794    0.4841   -0.7136 H         1 UNK         0.0731 
     80 H80        30.2420    0.6901   -1.9240 H         1 UNK         0.0731 
     81 H81        33.1229    0.2901   -2.5231 H         1 UNK         0.1312 
     82 H82        33.4365   -3.4888   -4.5169 H         1 UNK         0.1406 
     83 H83        29.9911   -2.6213   -2.1366 H         1 UNK         0.1631 
     84 H84        30.3294   -4.8649   -2.9727 H         1 UNK         0.0717 
     85 H85        31.8683   -5.2999   -3.6677 H         1 UNK         0.0717 
     86 H86        27.9815   -4.4773   -5.1718 H         1 UNK         0.0934 
     87 H87        28.6839   -3.3187   -4.0949 H         1 UNK         0.0934 
     88 H88        29.1397   -2.8053   -7.0386 H         1 UNK         0.0739 
     89 H89        26.4300   -2.1912   -6.0060 H         1 UNK         0.3093 
     90 H90        25.0879   -2.7449   -9.1352 H         1 UNK         0.0818 
     91 H91        23.5205   -4.5098   -8.3384 H         1 UNK         0.0819 
     92 H92        25.0906   -5.2034   -8.6999 H         1 UNK         0.0819 
     93 H93        24.6254   -4.9284   -7.0275 H         1 UNK         0.0819 
     94 H94        23.8452   -2.6514   -6.5278 H         1 UNK         0.3041 
     95 H95        24.2519    0.7535   -5.9232 H         1 UNK         0.0784 
     96 H96        22.4426    0.9506   -7.6373 H         1 UNK         0.0793 
     97 H97        21.6462   -0.4686   -6.9715 H         1 UNK         0.0793 
     98 H98        21.7950    1.0024   -6.0078 H         1 UNK         0.0793 
     99 H99        22.4805   -0.9197   -4.6096 H         1 UNK         0.3024 
    100 H100       23.1354   -1.5698   -2.4387 H         1 UNK         0.1171 
    101 H101       22.5881   -3.5471   -3.8761 H         1 UNK         0.0786 
    102 H102       24.2196   -4.1731   -3.6786 H         1 UNK         0.0786 
    103 H103       23.1297   -4.0823   -2.2958 H         1 UNK         0.0786 
    104 H104       25.5895   -3.0923   -1.9463 H         1 UNK         0.2977 
    105 H105       27.0820   -0.7726   -4.9907 H         1 UNK         0.3127 
    106 H106       29.0415    1.0362   -4.0559 H         1 UNK         0.0770 
    107 H107       26.1040    1.5927   -4.7672 H         1 UNK         0.0814 
    108 H108       27.0791    2.4725   -3.6002 H         1 UNK         0.0814 
    109 H109       26.6131    0.8173   -3.2766 H         1 UNK         0.0814 
    110 H110       28.7291    3.4891   -4.7014 H         1 UNK         0.2983 
    111 H111       30.3000    3.9835   -6.8589 H         1 UNK         0.0947 
    112 H112       29.6888    6.3877   -6.4908 H         1 UNK         0.0806 
    113 H113       29.9658    5.5459   -4.9779 H         1 UNK         0.0806 
    114 H114       28.3184    5.8897   -5.5089 H         1 UNK         0.0806 
    115 H115       26.8733    3.5100   -7.1739 H         1 UNK         0.3000 
    116 H116       26.4818    4.7991   -9.7240 H         1 UNK         0.0850 
    117 H117       24.4218    3.3757   -9.7925 H         1 UNK         0.0810 
    118 H118       24.5710    4.2093   -8.2543 H         1 UNK         0.0810 
    119 H119       24.9693    2.4948   -8.3741 H         1 UNK         0.0810 
    120 H120       27.6909    1.6191   -8.7145 H         1 UNK         0.3040 
    121 H121       28.1411    0.7727  -11.5483 H         1 UNK         0.0766 
    122 H122       28.1945   -0.8153   -8.9274 H         1 UNK         0.0812 
    123 H123       28.5021   -1.4785  -10.5276 H         1 UNK         0.0812 
    124 H124       26.9073   -0.8582  -10.1297 H         1 UNK         0.0812 
    125 H125       29.6650    1.5231   -8.4517 H         1 UNK         0.3205 
    126 H126       31.6832    2.0861   -7.7818 H         1 UNK         0.0754 
    127 H127       33.3549    3.0385   -9.3370 H         1 UNK         0.0769 
    128 H128       31.7541    3.6706   -9.6923 H         1 UNK         0.0769 
    129 H129       32.4655    2.4311  -10.7245 H         1 UNK         0.0769 
    130 H130       31.4064   -0.2726   -7.1644 H         1 UNK         0.2981 
    131 H131       32.3560   -2.0816   -6.5107 H         1 UNK         0.0541 
    132 H132       31.4167   -1.8709   -9.5856 H         1 UNK         0.3459 
    133 H133       31.8031   -3.4964  -10.0969 H         1 UNK         0.3459 
    134 H134       35.0096   -1.2914   -7.7861 H         1 UNK         0.0612 
    135 H135       34.7777   -2.4639   -6.5247 H         1 UNK         0.0612 
    136 H136       35.2949   -0.5167   -3.4049 H         1 UNK         0.0624 
    137 H137       35.4174   -2.0149   -4.2852 H         1 UNK         0.0624 
@<TRIPOS>BOND
     1    1    2 1    
     2    1   72 1    
     3    1   73 1    
     4    1   74 1    
     5    2    3 2    
     6    2    4 am   BACKBONE|DICT|INTERRES
     7    4    5 1    
     8    4   75 1    
     9    5    6 1    
    10    5   35 1    
    11    5   76 1    
    12    6    7 1    
    13    6   77 1    
    14    6   78 1    
    15    7    8 1    
    16    8    9 1    
    17    8   79 1    
    18    8   80 1    
    19    9   10 ar   
    20    9   14 ar   
    21   10   11 ar   
    22   10   81 1    
    23   11   12 ar   
    24   11   71 1    
    25   12   13 ar   
    26   12   82 1    
    27   13   14 ar   
    28   13   15 1    
    29   14   83 1    
    30   15   16 1    
    31   15   84 1    
    32   15   85 1    
    33   16   17 1    
    34   17   18 1    
    35   17   86 1    
    36   17   87 1    
    37   18   19 1    
    38   18   37 1    
    39   18   88 1    
    40   19   20 am   BACKBONE|DICT|INTERRES
    41   19   89 1    
    42   20   21 2    
    43   20   22 1    
    44   22   23 1    
    45   22   24 1    
    46   22   90 1    
    47   23   91 1    
    48   23   92 1    
    49   23   93 1    
    50   24   25 am   BACKBONE|DICT|INTERRES
    51   24   94 1    
    52   25   26 2    
    53   25   27 1    
    54   27   28 1    
    55   27   29 1    
    56   27   95 1    
    57   28   96 1    
    58   28   97 1    
    59   28   98 1    
    60   29   30 am   BACKBONE|DICT|INTERRES
    61   29   99 1    
    62   30   31 2    
    63   30   32 1    
    64   32   33 1    
    65   32   34 1    
    66   32  100 1    
    67   33  101 1    
    68   33  102 1    
    69   33  103 1    
    70   34   35 am   BACKBONE|DICT|INTERRES
    71   34  104 1    
    72   35   36 2    
    73   37   38 2    
    74   37   39 am   BACKBONE|DICT|INTERRES
    75   39   40 1    
    76   39  105 1    
    77   40   41 1    
    78   40   42 1    
    79   40  106 1    
    80   41  107 1    
    81   41  108 1    
    82   41  109 1    
    83   42   43 2    
    84   42   44 am   BACKBONE|DICT|INTERRES
    85   44   45 1    
    86   44  110 1    
    87   45   46 1    
    88   45   47 1    
    89   45  111 1    
    90   46  112 1    
    91   46  113 1    
    92   46  114 1    
    93   47   48 2    
    94   47   49 am   BACKBONE|DICT|INTERRES
    95   49   50 1    
    96   49  115 1    
    97   50   51 1    
    98   50   52 1    
    99   50  116 1    
   100   51  117 1    
   101   51  118 1    
   102   51  119 1    
   103   52   53 2    
   104   52   54 am   BACKBONE|DICT|INTERRES
   105   54   55 1    
   106   54  120 1    
   107   55   56 1    
   108   55   57 1    
   109   55  121 1    
   110   56  122 1    
   111   56  123 1    
   112   56  124 1    
   113   57   58 2    
   114   57   59 am   BACKBONE|DICT|INTERRES
   115   59   60 1    
   116   59  125 1    
   117   60   61 1    
   118   60   62 1    
   119   60  126 1    
   120   61  127 1    
   121   61  128 1    
   122   61  129 1    
   123   62   63 2    
   124   62   64 am   BACKBONE|DICT|INTERRES
   125   64   65 1    
   126   64  130 1    
   127   65   66 1    
   128   65   69 1    
   129   65  131 1    
   130   66   67 am   BACKBONE|DICT|INTERRES
   131   66   68 2    
   132   67  132 1    
   133   67  133 1    
   134   69   70 1    
   135   69  134 1    
   136   69  135 1    
   137   70   71 1    
   138   71  136 1    
   139   71  137 1    
@<TRIPOS>SUBSTRUCTURE
     1 UNK         1 GROUP             0       ****    0 ROOT    
