@<TRIPOS>MOLECULE
3R137
137   139    1
SMALL
USER_CHARGES


@<TRIPOS>ATOM
      1 CA         28.3143   -2.2558   -4.5721 C.3       0 UNK        -0.2020 
      2 C          27.7287   -3.5711   -4.0944 C.2       0 UNK         0.4855 
      3 O          26.9179   -4.1760   -4.7971 O.2       0 UNK        -0.5197 
      4 N          28.1281   -4.0276   -2.9027 N.am      1 UNK        -0.4892 
      5 CA         27.5982   -5.2318   -2.2597 C.3       1 UNK         0.0835 
      6 C6         28.4693   -5.6840   -1.0648 C.3       12 UNK        -0.0855 
      7 S7         30.1194   -6.2348   -1.6170 S.3       12 UNK        -0.2931 
      8 C8         31.2286   -5.0797   -0.7528 C.3       12 UNK         0.0378 
      9 C9         31.2151   -3.6815   -1.3573 C.ar      12 UNK        -0.0802 
     10 C10        31.8875   -3.4275   -2.5570 C.ar      12 UNK        -0.0944 
     11 C11        31.9587   -2.1293   -3.0739 C.ar      12 UNK        -0.0787 
     12 C12        31.3468   -1.0811   -2.3798 C.ar      12 UNK        -0.0862 
     13 C13        30.6504   -1.3257   -1.1921 C.ar      12 UNK        -0.0733 
     14 C14        30.5851   -2.6286   -0.6879 C.ar      12 UNK        -0.0832 
     15 C15        30.0005   -0.1821   -0.4276 C.3       12 UNK         0.0240 
     16 S16        28.4527    0.3661   -1.2120 S.3       12 UNK        -0.2522 
     17 C17        29.0158    1.7718   -2.2351 C.3       12 UNK        -0.0967 
     18 CA         28.4942    1.7056   -3.6941 C.3       5 UNK         0.0660 
     19 N          27.0289    1.6500   -3.7332 N.am      5 UNK        -0.4015 
     20 C          26.2877    1.2042   -4.7532 C.2       4 UNK         0.4946 
     21 O          26.7544    0.8131   -5.8256 O.2       4 UNK        -0.5353 
     22 CA         24.7636    1.2197   -4.5540 C.3       4 UNK         0.0277 
     23 CB         24.1309    2.3657   -5.3607 C.3       4 UNK        -0.1981 
     24 N          24.1664   -0.0524   -4.9647 N.am      4 UNK        -0.4209 
     25 C          24.3896   -1.2229   -4.3523 C.2       3 UNK         0.4942 
     26 O          25.0442   -1.3322   -3.3123 O.2       3 UNK        -0.5208 
     27 CA         23.7862   -2.4667   -5.0285 C.3       3 UNK         0.0250 
     28 CB         24.3626   -2.6651   -6.4434 C.3       3 UNK        -0.1990 
     29 N          24.0570   -3.6695   -4.2387 N.am      3 UNK        -0.4232 
     30 C          23.2717   -4.1342   -3.2561 C.2       2 UNK         0.4993 
     31 O          22.1819   -3.6388   -2.9638 O.2       2 UNK        -0.5286 
     32 CA         23.7583   -5.3680   -2.4713 C.3       2 UNK         0.0209 
     33 CB         23.0122   -6.6291   -2.9390 C.3       2 UNK        -0.1931 
     34 N          25.2000   -5.5934   -2.6014 N.am      2 UNK        -0.4546 
     35 C          26.1315   -4.9942   -1.8479 C.2       1 UNK         0.5154 
     36 O          25.8760   -4.2623   -0.8892 O.2       1 UNK        -0.5181 
     37 C          29.0114    2.8855   -4.5476 C.2       5 UNK         0.5014 
     38 O          29.5527    3.8517   -4.0062 O.2       5 UNK        -0.5248 
     39 N          28.7950    2.8047   -5.8626 N.am      6 UNK        -0.4434 
     40 CA         29.1048    3.8348   -6.8466 C.3       6 UNK         0.0363 
     41 CB         27.8846    4.7664   -6.9910 C.3       6 UNK        -0.1936 
     42 C          29.4792    3.1794   -8.1813 C.2       6 UNK         0.5081 
     43 O          29.4718    1.9491   -8.2980 O.2       6 UNK        -0.5248 
     44 N          29.7787    4.0207   -9.1810 N.am      7 UNK        -0.4718 
     45 CA         30.1933    3.6360  -10.5359 C.3       7 UNK         0.0273 
     46 CB         30.4802    4.9019  -11.3581 C.3       7 UNK        -0.1935 
     47 C          29.1966    2.7281  -11.2785 C.2       7 UNK         0.5018 
     48 O          29.6232    1.9389  -12.1205 O.2       7 UNK        -0.5186 
     49 N          27.9097    2.7952  -10.9069 N.am      8 UNK        -0.4240 
     50 CA         26.8448    1.8921  -11.3572 C.3       8 UNK         0.0235 
     51 CB         25.5073    2.3537  -10.7557 C.3       8 UNK        -0.2000 
     52 C          27.0981    0.4080  -11.0208 C.2       8 UNK         0.4941 
     53 O          26.6350   -0.4587  -11.7628 O.2       8 UNK        -0.5273 
     54 N          27.8420    0.1455   -9.9370 N.am      9 UNK        -0.4262 
     55 CA         28.3050   -1.1819   -9.5262 C.3       9 UNK         0.0264 
     56 CB         27.9272   -1.3919   -8.0504 C.3       9 UNK        -0.1955 
     57 C          29.8247   -1.3447   -9.7318 C.2       9 UNK         0.5031 
     58 O          30.3870   -2.3322   -9.2575 O.2       9 UNK        -0.5390 
     59 N          30.4643   -0.3784  -10.4124 N.am      10 UNK        -0.4204 
     60 CA         31.9097   -0.2307  -10.6297 C.3       10 UNK         0.0237 
     61 CB         32.4596   -1.3810  -11.5006 C.3       10 UNK        -0.1985 
     62 C          32.7212   -0.0189   -9.3326 C.2       10 UNK         0.4970 
     63 O          33.9163   -0.3204   -9.3134 O.2       10 UNK        -0.4914 
     64 N          32.0751    0.5068   -8.2850 N.am      11 UNK        -0.4285 
     65 CA         32.6809    0.8142   -6.9820 C.3       11 UNK         0.1007 
     66 C          33.0774    2.3116   -6.8687 C.2       11 UNK         0.5703 
     67 N          33.8206    2.6762   -5.8324 N.am      11 UNK        -0.7361 
     68 O          32.7290    3.1485   -7.6992 O.2       11 UNK        -0.4986 
     69 C69        31.7521    0.3645   -5.8230 C.3       12 UNK        -0.0947 
     70 S70        31.6258   -1.4537   -5.7489 S.3       12 UNK        -0.2240 
     71 C71        32.7300   -1.8598   -4.3596 C.3       12 UNK         0.0194 
     72 H72        27.5152   -1.5733   -4.8553 H         1 UNK         0.0906 
     73 H73        28.9175   -1.7729   -3.8042 H         1 UNK         0.0906 
     74 H74        28.9399   -2.4297   -5.4448 H         1 UNK         0.0906 
     75 H75        28.8106   -3.5078   -2.3682 H         1 UNK         0.3140 
     76 H76        27.6152   -6.0371   -2.9981 H         1 UNK         0.1085 
     77 H77        28.0010   -6.5243   -0.5483 H         1 UNK         0.0836 
     78 H78        28.5596   -4.8870   -0.3246 H         1 UNK         0.0836 
     79 H79        32.2444   -5.4749   -0.8009 H         1 UNK         0.0731 
     80 H80        30.9701   -5.0510    0.3070 H         1 UNK         0.0731 
     81 H81        32.3747   -4.2422   -3.0756 H         1 UNK         0.1312 
     82 H82        31.4123   -0.0747   -2.7656 H         1 UNK         0.1406 
     83 H83        30.0679   -2.8177    0.2434 H         1 UNK         0.1631 
     84 H84        30.6992    0.6496   -0.3279 H         1 UNK         0.0717 
     85 H85        29.7699   -0.4957    0.5917 H         1 UNK         0.0717 
     86 H86        28.6812    2.6901   -1.7481 H         1 UNK         0.0934 
     87 H87        30.1058    1.8161   -2.2320 H         1 UNK         0.0934 
     88 H88        28.8837    0.7894   -4.1439 H         1 UNK         0.0739 
     89 H89        26.5622    1.9569   -2.8925 H         1 UNK         0.3093 
     90 H90        24.5393    1.3723   -3.4960 H         1 UNK         0.0818 
     91 H91        24.5434    3.3294   -5.0588 H         1 UNK         0.0819 
     92 H92        24.3146    2.2555   -6.4306 H         1 UNK         0.0819 
     93 H93        23.0527    2.4133   -5.2071 H         1 UNK         0.0819 
     94 H94        23.6455   -0.0462   -5.8291 H         1 UNK         0.3041 
     95 H95        22.7073   -2.3192   -5.1113 H         1 UNK         0.0784 
     96 H96        24.0820   -1.8477   -7.1082 H         1 UNK         0.0793 
     97 H97        25.4518   -2.7131   -6.4330 H         1 UNK         0.0793 
     98 H98        23.9934   -3.5854   -6.8964 H         1 UNK         0.0793 
     99 H99        24.9809   -4.0728   -4.3629 H         1 UNK         0.3024 
    100 H100       23.5149   -5.1983   -1.4195 H         1 UNK         0.1171 
    101 H101       23.2089   -6.8499   -3.9889 H         1 UNK         0.0786 
    102 H102       23.3002   -7.5013   -2.3518 H         1 UNK         0.0786 
    103 H103       21.9336   -6.5081   -2.8283 H         1 UNK         0.0786 
    104 H104       25.4993   -6.1554   -3.3864 H         1 UNK         0.2977 
    105 H105       28.3312    1.9758   -6.2291 H         1 UNK         0.3127 
    106 H106       29.9712    4.4109   -6.5144 H         1 UNK         0.0770 
    107 H107       28.0822    5.5889   -7.6787 H         1 UNK         0.0814 
    108 H108       27.6151    5.2137   -6.0340 H         1 UNK         0.0814 
    109 H109       27.0111    4.2283   -7.3620 H         1 UNK         0.0814 
    110 H110       29.7665    5.0121   -8.9882 H         1 UNK         0.2983 
    111 H111       31.1250    3.0748  -10.4367 H         1 UNK         0.0947 
    112 H112       30.8155    4.6467  -12.3646 H         1 UNK         0.0806 
    113 H113       31.2669    5.5026  -10.9012 H         1 UNK         0.0806 
    114 H114       29.5929    5.5283  -11.4593 H         1 UNK         0.0806 
    115 H115       27.6602    3.4771  -10.2058 H         1 UNK         0.3000 
    116 H116       26.7825    1.9737  -12.4445 H         1 UNK         0.0850 
    117 H117       25.2666    3.3739  -11.0556 H         1 UNK         0.0810 
    118 H118       25.5203    2.3163   -9.6654 H         1 UNK         0.0810 
    119 H119       24.6878    1.7175  -11.0933 H         1 UNK         0.0810 
    120 H120       28.1966    0.9187   -9.3798 H         1 UNK         0.3040 
    121 H121       27.8154   -1.9578  -10.1178 H         1 UNK         0.0766 
    122 H122       28.1447   -2.4121   -7.7329 H         1 UNK         0.0812 
    123 H123       26.8643   -1.2198   -7.8818 H         1 UNK         0.0812 
    124 H124       28.4809   -0.7175   -7.3950 H         1 UNK         0.0812 
    125 H125       29.9006    0.3614  -10.8163 H         1 UNK         0.3205 
    126 H126       32.0287    0.6906  -11.2013 H         1 UNK         0.0754 
    127 H127       31.8767   -1.5001  -12.4138 H         1 UNK         0.0769 
    128 H128       32.4495   -2.3327  -10.9685 H         1 UNK         0.0769 
    129 H129       33.4906   -1.1883  -11.8000 H         1 UNK         0.0769 
    130 H130       31.1101    0.8004   -8.3924 H         1 UNK         0.2981 
    131 H131       33.6158    0.2585   -6.8867 H         1 UNK         0.0541 
    132 H132       34.1316    2.0062   -5.1471 H         1 UNK         0.3459 
    133 H133       34.0894    3.6435   -5.7437 H         1 UNK         0.3459 
    134 H134       30.7494    0.7687   -5.9620 H         1 UNK         0.0612 
    135 H135       32.0999    0.7398   -4.8602 H         1 UNK         0.0612 
    136 H136       33.3135   -2.7379   -4.6397 H         1 UNK         0.0624 
    137 H137       33.4544   -1.0603   -4.1989 H         1 UNK         0.0624 
@<TRIPOS>BOND
     1    1    2 1    
     2    1   72 1    
     3    1   73 1    
     4    1   74 1    
     5    2    3 2    
     6    2    4 am   BACKBONE|DICT|INTERRES
     7    4    5 1    
     8    4   75 1    
     9    5    6 1    
    10    5   35 1    
    11    5   76 1    
    12    6    7 1    
    13    6   77 1    
    14    6   78 1    
    15    7    8 1    
    16    8    9 1    
    17    8   79 1    
    18    8   80 1    
    19    9   10 ar   
    20    9   14 ar   
    21   10   11 ar   
    22   10   81 1    
    23   11   12 ar   
    24   11   71 1    
    25   12   13 ar   
    26   12   82 1    
    27   13   14 ar   
    28   13   15 1    
    29   14   83 1    
    30   15   16 1    
    31   15   84 1    
    32   15   85 1    
    33   16   17 1    
    34   17   18 1    
    35   17   86 1    
    36   17   87 1    
    37   18   19 1    
    38   18   37 1    
    39   18   88 1    
    40   19   20 am   BACKBONE|DICT|INTERRES
    41   19   89 1    
    42   20   21 2    
    43   20   22 1    
    44   22   23 1    
    45   22   24 1    
    46   22   90 1    
    47   23   91 1    
    48   23   92 1    
    49   23   93 1    
    50   24   25 am   BACKBONE|DICT|INTERRES
    51   24   94 1    
    52   25   26 2    
    53   25   27 1    
    54   27   28 1    
    55   27   29 1    
    56   27   95 1    
    57   28   96 1    
    58   28   97 1    
    59   28   98 1    
    60   29   30 am   BACKBONE|DICT|INTERRES
    61   29   99 1    
    62   30   31 2    
    63   30   32 1    
    64   32   33 1    
    65   32   34 1    
    66   32  100 1    
    67   33  101 1    
    68   33  102 1    
    69   33  103 1    
    70   34   35 am   BACKBONE|DICT|INTERRES
    71   34  104 1    
    72   35   36 2    
    73   37   38 2    
    74   37   39 am   BACKBONE|DICT|INTERRES
    75   39   40 1    
    76   39  105 1    
    77   40   41 1    
    78   40   42 1    
    79   40  106 1    
    80   41  107 1    
    81   41  108 1    
    82   41  109 1    
    83   42   43 2    
    84   42   44 am   BACKBONE|DICT|INTERRES
    85   44   45 1    
    86   44  110 1    
    87   45   46 1    
    88   45   47 1    
    89   45  111 1    
    90   46  112 1    
    91   46  113 1    
    92   46  114 1    
    93   47   48 2    
    94   47   49 am   BACKBONE|DICT|INTERRES
    95   49   50 1    
    96   49  115 1    
    97   50   51 1    
    98   50   52 1    
    99   50  116 1    
   100   51  117 1    
   101   51  118 1    
   102   51  119 1    
   103   52   53 2    
   104   52   54 am   BACKBONE|DICT|INTERRES
   105   54   55 1    
   106   54  120 1    
   107   55   56 1    
   108   55   57 1    
   109   55  121 1    
   110   56  122 1    
   111   56  123 1    
   112   56  124 1    
   113   57   58 2    
   114   57   59 am   BACKBONE|DICT|INTERRES
   115   59   60 1    
   116   59  125 1    
   117   60   61 1    
   118   60   62 1    
   119   60  126 1    
   120   61  127 1    
   121   61  128 1    
   122   61  129 1    
   123   62   63 2    
   124   62   64 am   BACKBONE|DICT|INTERRES
   125   64   65 1    
   126   64  130 1    
   127   65   66 1    
   128   65   69 1    
   129   65  131 1    
   130   66   67 am   BACKBONE|DICT|INTERRES
   131   66   68 2    
   132   67  132 1    
   133   67  133 1    
   134   69   70 1    
   135   69  134 1    
   136   69  135 1    
   137   70   71 1    
   138   71  136 1    
   139   71  137 1    
@<TRIPOS>SUBSTRUCTURE
     1 UNK         1 GROUP             0       ****    0 ROOT    
