@<TRIPOS>MOLECULE
3R137
137   139    1
SMALL
USER_CHARGES


@<TRIPOS>ATOM
      1 CA         25.4854   -6.6437   -3.8500 C.3       0 UNK        -0.2020 
      2 C          26.3256   -5.3772   -3.7962 C.2       0 UNK         0.4855 
      3 O          26.2027   -4.5343   -4.6840 O.2       0 UNK        -0.5197 
      4 N          27.1599   -5.2397   -2.7537 N.am      1 UNK        -0.4892 
      5 CA         28.0869   -4.1280   -2.4897 C.3       1 UNK         0.0835 
      6 C6         29.3959   -4.2148   -3.3242 C.3       12 UNK        -0.0855 
      7 S7         30.6803   -5.1946   -2.4764 S.3       12 UNK        -0.2931 
      8 C8         31.1555   -4.1066   -1.0830 C.3       12 UNK         0.0378 
      9 C9         31.5338   -2.6994   -1.5279 C.ar      12 UNK        -0.0802 
     10 C10        32.7476   -2.4836   -2.1826 C.ar      12 UNK        -0.0944 
     11 C11        33.1093   -1.2025   -2.6065 C.ar      12 UNK        -0.0787 
     12 C12        32.2517   -0.1264   -2.3559 C.ar      12 UNK        -0.0862 
     13 C13        31.0370   -0.3241   -1.6894 C.ar      12 UNK        -0.0733 
     14 C14        30.6841   -1.6142   -1.2780 C.ar      12 UNK        -0.0832 
     15 C15        30.1297    0.8619   -1.3733 C.3       12 UNK         0.0240 
     16 S16        28.6886    0.9851   -2.4840 S.3       12 UNK        -0.2522 
     17 C17        29.4882    1.4078   -4.0639 C.3       12 UNK        -0.0967 
     18 CA         28.5645    1.3806   -5.3056 C.3       5 UNK         0.0660 
     19 N          27.9530    0.0743   -5.5694 N.am      5 UNK        -0.4015 
     20 C          27.5447   -0.2886   -6.7946 C.2       4 UNK         0.4946 
     21 O          27.6218    0.4437   -7.7823 O.2       4 UNK        -0.5353 
     22 CA         26.9279   -1.6844   -6.9566 C.3       4 UNK         0.0277 
     23 CB         28.0067   -2.7757   -6.8639 C.3       4 UNK        -0.1981 
     24 N          25.8546   -1.9510   -5.9989 N.am      4 UNK        -0.4209 
     25 C          24.7123   -1.2521   -5.9206 C.2       3 UNK         0.4942 
     26 O          24.4375   -0.2973   -6.6465 O.2       3 UNK        -0.5208 
     27 CA         23.7170   -1.6655   -4.8258 C.3       3 UNK         0.0250 
     28 CB         22.9588   -2.9435   -5.2200 C.3       3 UNK        -0.1990 
     29 N          24.3673   -1.8516   -3.5295 N.am      3 UNK        -0.4232 
     30 C          24.9507   -0.8679   -2.8301 C.2       2 UNK         0.4993 
     31 O          24.9655    0.3105   -3.1779 O.2       2 UNK        -0.5286 
     32 CA         25.6853   -1.2763   -1.5458 C.3       2 UNK         0.0209 
     33 CB         24.7050   -1.3797   -0.3664 C.3       2 UNK        -0.1931 
     34 N          26.4347   -2.5286   -1.6769 N.am      2 UNK        -0.4546 
     35 C          27.4011   -2.7512   -2.5803 C.2       1 UNK         0.5154 
     36 O          27.7252   -1.9471   -3.4564 O.2       1 UNK        -0.5181 
     37 C          27.5555    2.5487   -5.3711 C.2       5 UNK         0.5014 
     38 O          27.9530    3.6362   -5.7920 O.2       5 UNK        -0.5248 
     39 N          26.2713    2.3205   -5.0417 N.am      6 UNK        -0.4434 
     40 CA         25.1945    3.2999   -5.2561 C.3       6 UNK         0.0363 
     41 CB         23.9136    2.8702   -4.5260 C.3       6 UNK        -0.1936 
     42 C          24.8972    3.5449   -6.7459 C.2       6 UNK         0.5081 
     43 O          24.6348    4.6848   -7.1293 O.2       6 UNK        -0.5248 
     44 N          24.9775    2.4869   -7.5656 N.am      7 UNK        -0.4718 
     45 CA         24.8691    2.5491   -9.0279 C.3       7 UNK         0.0273 
     46 CB         24.5426    1.1450   -9.5645 C.3       7 UNK        -0.1935 
     47 C          26.1294    3.1099   -9.7178 C.2       7 UNK         0.5018 
     48 O          26.1001    3.3149  -10.9321 O.2       7 UNK        -0.5186 
     49 N          27.2031    3.3339   -8.9453 N.am      8 UNK        -0.4240 
     50 CA         28.5316    3.7958   -9.3570 C.3       8 UNK         0.0235 
     51 CB         28.4716    5.2180   -9.9553 C.3       8 UNK        -0.2000 
     52 C          29.2718    2.7868  -10.2561 C.2       8 UNK         0.4941 
     53 O          30.0531    3.1937  -11.1192 O.2       8 UNK        -0.5273 
     54 N          29.0389    1.4877  -10.0239 N.am      9 UNK        -0.4262 
     55 CA         29.8186    0.3956  -10.6039 C.3       9 UNK         0.0264 
     56 CB         28.9759   -0.8906  -10.5820 C.3       9 UNK        -0.1955 
     57 C          31.1246    0.2086   -9.8144 C.2       9 UNK         0.5031 
     58 O          31.2316    0.6676   -8.6723 O.2       9 UNK        -0.5390 
     59 N          32.0923   -0.4890  -10.4213 N.am      10 UNK        -0.4204 
     60 CA         33.4195   -0.7694   -9.8614 C.3       10 UNK         0.0237 
     61 CB         34.3760   -1.1335  -11.0135 C.3       10 UNK        -0.1985 
     62 C          33.3967   -1.8373   -8.7454 C.2       10 UNK         0.4970 
     63 O          34.0957   -2.8476   -8.8495 O.2       10 UNK        -0.4914 
     64 N          32.6012   -1.5814   -7.6993 N.am      11 UNK        -0.4285 
     65 CA         32.4207   -2.4102   -6.4959 C.3       11 UNK         0.1007 
     66 C          31.7957   -3.8081   -6.7977 C.2       11 UNK         0.5703 
     67 N          31.8198   -4.7375   -5.8521 N.am      11 UNK        -0.7361 
     68 O          31.2357   -4.0505   -7.8656 O.2       11 UNK        -0.4986 
     69 C69        33.7164   -2.4655   -5.6309 C.3       12 UNK        -0.0947 
     70 S70        34.2615   -0.8000   -5.1091 S.3       12 UNK        -0.2240 
     71 C71        34.4422   -0.9806   -3.3069 C.3       12 UNK         0.0194 
     72 H72        25.7039   -7.1973   -4.7627 H         1 UNK         0.0906 
     73 H73        25.6768   -7.2996   -3.0010 H         1 UNK         0.0906 
     74 H74        24.4257   -6.3898   -3.8515 H         1 UNK         0.0906 
     75 H75        27.1896   -5.9808   -2.0666 H         1 UNK         0.3140 
     76 H76        28.3483   -4.2195   -1.4359 H         1 UNK         0.1085 
     77 H77        29.8304   -3.2379   -3.5418 H         1 UNK         0.0836 
     78 H78        29.2001   -4.6582   -4.3018 H         1 UNK         0.0836 
     79 H79        32.0055   -4.5571   -0.5681 H         1 UNK         0.0731 
     80 H80        30.3517   -4.0743   -0.3471 H         1 UNK         0.0731 
     81 H81        33.4093   -3.3196   -2.3637 H         1 UNK         0.1312 
     82 H82        32.5367    0.8673   -2.6741 H         1 UNK         0.1406 
     83 H83        29.7475   -1.7670   -0.7601 H         1 UNK         0.1631 
     84 H84        30.6915    1.7965   -1.4129 H         1 UNK         0.0717 
     85 H85        29.7691    0.7723   -0.3477 H         1 UNK         0.0717 
     86 H86        29.9611    2.3867   -3.9640 H         1 UNK         0.0934 
     87 H87        30.3038    0.7029   -4.2298 H         1 UNK         0.0934 
     88 H88        29.2412    1.5624   -6.1451 H         1 UNK         0.0739 
     89 H89        27.8538   -0.5689   -4.7850 H         1 UNK         0.3093 
     90 H90        26.4888   -1.7318   -7.9553 H         1 UNK         0.0818 
     91 H91        27.5923   -3.7617   -7.0742 H         1 UNK         0.0819 
     92 H92        28.8070   -2.6007   -7.5833 H         1 UNK         0.0819 
     93 H93        28.4629   -2.8127   -5.8750 H         1 UNK         0.0819 
     94 H94        25.9995   -2.7336   -5.3646 H         1 UNK         0.3041 
     95 H95        22.9887   -0.8584   -4.7200 H         1 UNK         0.0784 
     96 H96        22.4529   -2.8146   -6.1778 H         1 UNK         0.0793 
     97 H97        23.6268   -3.8000   -5.3178 H         1 UNK         0.0793 
     98 H98        22.1960   -3.1952   -4.4831 H         1 UNK         0.0793 
     99 H99        24.4492   -2.7975   -3.1871 H         1 UNK         0.3024 
    100 H100       26.4045   -0.4860   -1.3225 H         1 UNK         0.1171 
    101 H101       25.2298   -1.5646    0.5711 H         1 UNK         0.0786 
    102 H102       24.1453   -0.4511   -0.2436 H         1 UNK         0.0786 
    103 H103       23.9793   -2.1811   -0.5104 H         1 UNK         0.0786 
    104 H104       26.2118   -3.2605   -1.0175 H         1 UNK         0.2977 
    105 H105       26.0019    1.4246   -4.6470 H         1 UNK         0.3127 
    106 H106       25.5187    4.2504   -4.8269 H         1 UNK         0.0770 
    107 H107       23.5564    1.9007   -4.8759 H         1 UNK         0.0814 
    108 H108       23.1108    3.5910   -4.6869 H         1 UNK         0.0814 
    109 H109       24.0746    2.8042   -3.4502 H         1 UNK         0.0814 
    110 H110       25.1320    1.5653   -7.1664 H         1 UNK         0.2983 
    111 H111       24.0411    3.2133   -9.2846 H         1 UNK         0.0947 
    112 H112       24.4146    1.1563  -10.6476 H         1 UNK         0.0806 
    113 H113       23.6175    0.7614   -9.1339 H         1 UNK         0.0806 
    114 H114       25.3373    0.4334   -9.3368 H         1 UNK         0.0806 
    115 H115       27.1129    3.1049   -7.9640 H         1 UNK         0.3000 
    116 H116       29.1188    3.8548   -8.4392 H         1 UNK         0.0850 
    117 H117       29.4740    5.6184  -10.1111 H         1 UNK         0.0810 
    118 H118       27.9492    5.9058   -9.2903 H         1 UNK         0.0810 
    119 H119       27.9645    5.2319  -10.9203 H         1 UNK         0.0810 
    120 H120       28.4348    1.2311   -9.2440 H         1 UNK         0.3040 
    121 H121       30.0629    0.6389  -11.6402 H         1 UNK         0.0766 
    122 H122       28.0216   -0.7482  -11.0895 H         1 UNK         0.0812 
    123 H123       28.7663   -1.2180   -9.5644 H         1 UNK         0.0812 
    124 H124       29.4915   -1.7091  -11.0854 H         1 UNK         0.0812 
    125 H125       31.9090   -0.8665  -11.3402 H         1 UNK         0.3205 
    126 H126       33.7953    0.1490   -9.4046 H         1 UNK         0.0754 
    127 H127       35.3897   -1.2963  -10.6444 H         1 UNK         0.0769 
    128 H128       34.4299   -0.3342  -11.7531 H         1 UNK         0.0769 
    129 H129       34.0643   -2.0451  -11.5251 H         1 UNK         0.0769 
    130 H130       32.0416   -0.7337   -7.7473 H         1 UNK         0.2981 
    131 H131       31.6577   -1.8956   -5.9103 H         1 UNK         0.0541 
    132 H132       32.2243   -4.5594   -4.9472 H         1 UNK         0.3459 
    133 H133       31.3999   -5.6328   -6.0430 H         1 UNK         0.3459 
    134 H134       33.5671   -3.0794   -4.7448 H         1 UNK         0.0612 
    135 H135       34.5304   -2.9379   -6.1823 H         1 UNK         0.0612 
    136 H136       34.9116   -0.0788   -2.9114 H         1 UNK         0.0624 
    137 H137       35.1324   -1.7990   -3.0962 H         1 UNK         0.0624 
@<TRIPOS>BOND
     1    1    2 1    
     2    1   72 1    
     3    1   73 1    
     4    1   74 1    
     5    2    3 2    
     6    2    4 am   BACKBONE|DICT|INTERRES
     7    4    5 1    
     8    4   75 1    
     9    5    6 1    
    10    5   35 1    
    11    5   76 1    
    12    6    7 1    
    13    6   77 1    
    14    6   78 1    
    15    7    8 1    
    16    8    9 1    
    17    8   79 1    
    18    8   80 1    
    19    9   10 ar   
    20    9   14 ar   
    21   10   11 ar   
    22   10   81 1    
    23   11   12 ar   
    24   11   71 1    
    25   12   13 ar   
    26   12   82 1    
    27   13   14 ar   
    28   13   15 1    
    29   14   83 1    
    30   15   16 1    
    31   15   84 1    
    32   15   85 1    
    33   16   17 1    
    34   17   18 1    
    35   17   86 1    
    36   17   87 1    
    37   18   19 1    
    38   18   37 1    
    39   18   88 1    
    40   19   20 am   BACKBONE|DICT|INTERRES
    41   19   89 1    
    42   20   21 2    
    43   20   22 1    
    44   22   23 1    
    45   22   24 1    
    46   22   90 1    
    47   23   91 1    
    48   23   92 1    
    49   23   93 1    
    50   24   25 am   BACKBONE|DICT|INTERRES
    51   24   94 1    
    52   25   26 2    
    53   25   27 1    
    54   27   28 1    
    55   27   29 1    
    56   27   95 1    
    57   28   96 1    
    58   28   97 1    
    59   28   98 1    
    60   29   30 am   BACKBONE|DICT|INTERRES
    61   29   99 1    
    62   30   31 2    
    63   30   32 1    
    64   32   33 1    
    65   32   34 1    
    66   32  100 1    
    67   33  101 1    
    68   33  102 1    
    69   33  103 1    
    70   34   35 am   BACKBONE|DICT|INTERRES
    71   34  104 1    
    72   35   36 2    
    73   37   38 2    
    74   37   39 am   BACKBONE|DICT|INTERRES
    75   39   40 1    
    76   39  105 1    
    77   40   41 1    
    78   40   42 1    
    79   40  106 1    
    80   41  107 1    
    81   41  108 1    
    82   41  109 1    
    83   42   43 2    
    84   42   44 am   BACKBONE|DICT|INTERRES
    85   44   45 1    
    86   44  110 1    
    87   45   46 1    
    88   45   47 1    
    89   45  111 1    
    90   46  112 1    
    91   46  113 1    
    92   46  114 1    
    93   47   48 2    
    94   47   49 am   BACKBONE|DICT|INTERRES
    95   49   50 1    
    96   49  115 1    
    97   50   51 1    
    98   50   52 1    
    99   50  116 1    
   100   51  117 1    
   101   51  118 1    
   102   51  119 1    
   103   52   53 2    
   104   52   54 am   BACKBONE|DICT|INTERRES
   105   54   55 1    
   106   54  120 1    
   107   55   56 1    
   108   55   57 1    
   109   55  121 1    
   110   56  122 1    
   111   56  123 1    
   112   56  124 1    
   113   57   58 2    
   114   57   59 am   BACKBONE|DICT|INTERRES
   115   59   60 1    
   116   59  125 1    
   117   60   61 1    
   118   60   62 1    
   119   60  126 1    
   120   61  127 1    
   121   61  128 1    
   122   61  129 1    
   123   62   63 2    
   124   62   64 am   BACKBONE|DICT|INTERRES
   125   64   65 1    
   126   64  130 1    
   127   65   66 1    
   128   65   69 1    
   129   65  131 1    
   130   66   67 am   BACKBONE|DICT|INTERRES
   131   66   68 2    
   132   67  132 1    
   133   67  133 1    
   134   69   70 1    
   135   69  134 1    
   136   69  135 1    
   137   70   71 1    
   138   71  136 1    
   139   71  137 1    
@<TRIPOS>SUBSTRUCTURE
     1 UNK         1 GROUP             0       ****    0 ROOT    
