@<TRIPOS>MOLECULE
3R137
137   139    1
SMALL
USER_CHARGES


@<TRIPOS>ATOM
      1 CA         29.6408   -0.1352   -3.6144 C.3       0 UNK        -0.2020 
      2 C          29.5125    0.4813   -2.2247 C.2       0 UNK         0.4855 
      3 O          29.8791    1.6406   -2.0442 O.2       0 UNK        -0.5197 
      4 N          29.0075   -0.2373   -1.2145 N.am      1 UNK        -0.4892 
      5 CA         28.4504   -1.5921   -1.2871 C.3       1 UNK         0.0835 
      6 C6         28.8828   -2.4698   -0.0838 C.3       12 UNK        -0.0855 
      7 S7         30.6917   -2.6363    0.0960 S.3       12 UNK        -0.2931 
      8 C8         31.0345   -4.1686   -0.8286 C.3       12 UNK         0.0378 
      9 C9         31.0876   -3.9097   -2.3264 C.ar      12 UNK        -0.0802 
     10 C10        32.2140   -3.2979   -2.8836 C.ar      12 UNK        -0.0944 
     11 C11        32.2738   -3.0303   -4.2534 C.ar      12 UNK        -0.0787 
     12 C12        31.1905   -3.3717   -5.0688 C.ar      12 UNK        -0.0862 
     13 C13        30.0622   -3.9952   -4.5242 C.ar      12 UNK        -0.0733 
     14 C14        30.0213   -4.2745   -3.1545 C.ar      12 UNK        -0.0832 
     15 C15        28.8910   -4.3714   -5.4176 C.3       12 UNK         0.0240 
     16 S16        27.5933   -3.0961   -5.3722 S.3       12 UNK        -0.2522 
     17 C17        27.1098   -3.0521   -7.1334 C.3       12 UNK        -0.0967 
     18 CA         26.0648   -1.9737   -7.5210 C.3       5 UNK         0.0660 
     19 N          24.7516   -2.1936   -6.9062 N.am      5 UNK        -0.4015 
     20 C          23.6269   -2.4319   -7.6005 C.2       4 UNK         0.4946 
     21 O          23.5854   -2.5152   -8.8292 O.2       4 UNK        -0.5353 
     22 CA         22.3123   -2.6233   -6.8193 C.3       4 UNK         0.0277 
     23 CB         22.0261   -4.1206   -6.6185 C.3       4 UNK        -0.1981 
     24 N          22.2850   -1.9552   -5.5196 N.am      4 UNK        -0.4209 
     25 C          22.3061   -0.6292   -5.3252 C.2       3 UNK         0.4942 
     26 O          22.2699    0.2004   -6.2342 O.2       3 UNK        -0.5208 
     27 CA         22.4273   -0.1482   -3.8654 C.3       3 UNK         0.0250 
     28 CB         21.0422    0.2103   -3.3037 C.3       3 UNK        -0.1990 
     29 N          23.0881   -1.0996   -2.9575 N.am      3 UNK        -0.4232 
     30 C          24.3161   -1.6067   -3.1346 C.2       2 UNK         0.4993 
     31 O          25.0109   -1.3764   -4.1260 O.2       2 UNK        -0.5286 
     32 CA         24.8220   -2.5996   -2.0803 C.3       2 UNK         0.0209 
     33 CB         24.4478   -4.0340   -2.4886 C.3       2 UNK        -0.1931 
     34 N          26.2760   -2.5160   -1.9326 N.am      2 UNK        -0.4546 
     35 C          26.9143   -1.5023   -1.3351 C.2       1 UNK         0.5154 
     36 O          26.3352   -0.5554   -0.7947 O.2       1 UNK        -0.5181 
     37 C          26.5769   -0.5423   -7.2833 C.2       5 UNK         0.5014 
     38 O          27.2045    0.0116   -8.1862 O.2       5 UNK        -0.5248 
     39 N          26.2941    0.0504   -6.1116 N.am      6 UNK        -0.4434 
     40 CA         26.7985    1.3511   -5.6452 C.3       6 UNK         0.0363 
     41 CB         26.2953    1.6065   -4.2153 C.3       6 UNK        -0.1936 
     42 C          26.4862    2.5627   -6.5429 C.2       6 UNK         0.5081 
     43 O          27.1474    3.5915   -6.4036 O.2       6 UNK        -0.5248 
     44 N          25.5212    2.4238   -7.4626 N.am      7 UNK        -0.4718 
     45 CA         25.2413    3.3855   -8.5335 C.3       7 UNK         0.0273 
     46 CB         23.9725    2.9479   -9.2825 C.3       7 UNK        -0.1935 
     47 C          26.4167    3.5632   -9.5175 C.2       7 UNK         0.5018 
     48 O          26.5687    4.6504  -10.0763 O.2       7 UNK        -0.5186 
     49 N          27.2248    2.5086   -9.6957 N.am      8 UNK        -0.4240 
     50 CA         28.4727    2.5181  -10.4634 C.3       8 UNK         0.0235 
     51 CB         28.3995    1.4473  -11.5643 C.3       8 UNK        -0.2000 
     52 C          29.6876    2.2638   -9.5565 C.2       8 UNK         0.4941 
     53 O          30.7487    2.8428   -9.7958 O.2       8 UNK        -0.5273 
     54 N          29.5161    1.4030   -8.5418 N.am      9 UNK        -0.4262 
     55 CA         30.4882    0.9162   -7.5598 C.3       9 UNK         0.0264 
     56 CB         31.0545    2.0605   -6.6942 C.3       9 UNK        -0.1955 
     57 C          31.5891    0.0523   -8.1933 C.2       9 UNK         0.5031 
     58 O          31.6375   -1.1487   -7.9287 O.2       9 UNK        -0.5390 
     59 N          32.4393    0.6808   -9.0184 N.am      10 UNK        -0.4204 
     60 CA         33.5900    0.1070   -9.7305 C.3       10 UNK         0.0237 
     61 CB         33.1122   -0.8615  -10.8337 C.3       10 UNK        -0.1985 
     62 C          34.6477   -0.5253   -8.7991 C.2       10 UNK         0.4970 
     63 O          35.3339   -1.4668   -9.2010 O.2       10 UNK        -0.4914 
     64 N          34.7623    0.0038   -7.5739 N.am      11 UNK        -0.4285 
     65 CA         35.6629   -0.4934   -6.5224 C.3       11 UNK         0.1007 
     66 C          37.1588   -0.1045   -6.7082 C.2       11 UNK         0.5703 
     67 N          37.5108    0.7730   -7.6409 N.am      11 UNK        -0.7361 
     68 O          38.0189   -0.6175   -5.9962 O.2       11 UNK        -0.4986 
     69 C69        35.1595   -0.1122   -5.1026 C.3       12 UNK        -0.0947 
     70 S70        33.4245   -0.5690   -4.7601 S.3       12 UNK        -0.2240 
     71 C71        33.5153   -2.3822   -4.8451 C.3       12 UNK         0.0194 
     72 H72        29.9965    0.6057   -4.3286 H         1 UNK         0.0906 
     73 H73        30.3610   -0.9519   -3.6020 H         1 UNK         0.0906 
     74 H74        28.6849   -0.5145   -3.9739 H         1 UNK         0.0906 
     75 H75        28.8946    0.2117   -0.3169 H         1 UNK         0.3140 
     76 H76        28.7807   -2.0866   -2.1986 H         1 UNK         0.1085 
     77 H77        28.4441   -3.4670   -0.1553 H         1 UNK         0.0836 
     78 H78        28.5028   -2.0466    0.8485 H         1 UNK         0.0836 
     79 H79        31.9958   -4.5670   -0.5005 H         1 UNK         0.0731 
     80 H80        30.2932   -4.9310   -0.5845 H         1 UNK         0.0731 
     81 H81        33.0426   -3.0197   -2.2463 H         1 UNK         0.1312 
     82 H82        31.2273   -3.1505   -6.1274 H         1 UNK         0.1406 
     83 H83        29.1513   -4.7591   -2.7327 H         1 UNK         0.1631 
     84 H84        28.4658   -5.3252   -5.1020 H         1 UNK         0.0717 
     85 H85        29.2426   -4.5202   -6.4397 H         1 UNK         0.0717 
     86 H86        28.0130   -2.9093   -7.7307 H         1 UNK         0.0934 
     87 H87        26.7299   -4.0378   -7.4066 H         1 UNK         0.0934 
     88 H88        25.9630   -2.0472   -8.6058 H         1 UNK         0.0739 
     89 H89        24.7125   -2.1132   -5.8944 H         1 UNK         0.3093 
     90 H90        21.5094   -2.1991   -7.4263 H         1 UNK         0.0818 
     91 H91        21.0565   -4.2808   -6.1465 H         1 UNK         0.0819 
     92 H92        22.0085   -4.6461   -7.5745 H         1 UNK         0.0819 
     93 H93        22.7863   -4.5983   -5.9988 H         1 UNK         0.0819 
     94 H94        22.3066   -2.5499   -4.7047 H         1 UNK         0.3041 
     95 H95        23.0327    0.7596   -3.8791 H         1 UNK         0.0784 
     96 H96        20.5365    0.9349   -3.9438 H         1 UNK         0.0793 
     97 H97        20.3965   -0.6658   -3.2304 H         1 UNK         0.0793 
     98 H98        21.1183    0.6570   -2.3121 H         1 UNK         0.0793 
     99 H99        22.5709   -1.3574   -2.1288 H         1 UNK         0.3024 
    100 H100       24.3587   -2.3669   -1.1185 H         1 UNK         0.1171 
    101 H101       23.3667   -4.1492   -2.5771 H         1 UNK         0.0786 
    102 H102       24.7881   -4.7586   -1.7485 H         1 UNK         0.0786 
    103 H103       24.8851   -4.3070   -3.4506 H         1 UNK         0.0786 
    104 H104       26.8112   -3.2326   -2.4002 H         1 UNK         0.2977 
    105 H105       25.7918   -0.4937   -5.4092 H         1 UNK         0.3127 
    106 H106       27.8859    1.2709   -5.6107 H         1 UNK         0.0770 
    107 H107       25.2096    1.6932   -4.1836 H         1 UNK         0.0814 
    108 H108       26.7093    2.5321   -3.8128 H         1 UNK         0.0814 
    109 H109       26.5865    0.8051   -3.5369 H         1 UNK         0.0814 
    110 H110       25.0145    1.5503   -7.4868 H         1 UNK         0.2983 
    111 H111       25.0528    4.3564   -8.0701 H         1 UNK         0.0947 
    112 H112       23.7186    3.6604  -10.0687 H         1 UNK         0.0806 
    113 H113       23.1154    2.8886   -8.6113 H         1 UNK         0.0806 
    114 H114       24.0979    1.9724   -9.7544 H         1 UNK         0.0806 
    115 H115       27.0180    1.6588   -9.1792 H         1 UNK         0.3000 
    116 H116       28.6212    3.4894  -10.9400 H         1 UNK         0.0850 
    117 H117       29.3206    1.4234  -12.1485 H         1 UNK         0.0810 
    118 H118       27.5818    1.6489  -12.2564 H         1 UNK         0.0810 
    119 H119       28.2483    0.4495  -11.1497 H         1 UNK         0.0810 
    120 H120       28.6154    0.9280   -8.4796 H         1 UNK         0.3040 
    121 H121       29.9260    0.2582   -6.8948 H         1 UNK         0.0766 
    122 H122       31.7254    1.6732   -5.9271 H         1 UNK         0.0812 
    123 H123       30.2544    2.5959   -6.1825 H         1 UNK         0.0812 
    124 H124       31.6173    2.7885   -7.2782 H         1 UNK         0.0812 
    125 H125       32.2223    1.6527   -9.2263 H         1 UNK         0.3205 
    126 H126       34.0880    0.9438  -10.2223 H         1 UNK         0.0754 
    127 H127       33.9436   -1.1845  -11.4616 H         1 UNK         0.0769 
    128 H128       32.3803   -0.3870  -11.4875 H         1 UNK         0.0769 
    129 H129       32.6544   -1.7575  -10.4130 H         1 UNK         0.0769 
    130 H130       34.1637    0.7738   -7.3183 H         1 UNK         0.2981 
    131 H131       35.6509   -1.5828   -6.5830 H         1 UNK         0.0541 
    132 H132       36.8151    1.1982   -8.2319 H         1 UNK         0.3459 
    133 H133       38.4837    1.0113   -7.7526 H         1 UNK         0.3459 
    134 H134       35.2502    0.9647   -4.9503 H         1 UNK         0.0612 
    135 H135       35.7835   -0.5782   -4.3376 H         1 UNK         0.0612 
    136 H136       34.4023   -2.7298   -4.3133 H         1 UNK         0.0624 
    137 H137       33.6353   -2.6861   -5.8861 H         1 UNK         0.0624 
@<TRIPOS>BOND
     1    1    2 1    
     2    1   72 1    
     3    1   73 1    
     4    1   74 1    
     5    2    3 2    
     6    2    4 am   BACKBONE|DICT|INTERRES
     7    4    5 1    
     8    4   75 1    
     9    5    6 1    
    10    5   35 1    
    11    5   76 1    
    12    6    7 1    
    13    6   77 1    
    14    6   78 1    
    15    7    8 1    
    16    8    9 1    
    17    8   79 1    
    18    8   80 1    
    19    9   10 ar   
    20    9   14 ar   
    21   10   11 ar   
    22   10   81 1    
    23   11   12 ar   
    24   11   71 1    
    25   12   13 ar   
    26   12   82 1    
    27   13   14 ar   
    28   13   15 1    
    29   14   83 1    
    30   15   16 1    
    31   15   84 1    
    32   15   85 1    
    33   16   17 1    
    34   17   18 1    
    35   17   86 1    
    36   17   87 1    
    37   18   19 1    
    38   18   37 1    
    39   18   88 1    
    40   19   20 am   BACKBONE|DICT|INTERRES
    41   19   89 1    
    42   20   21 2    
    43   20   22 1    
    44   22   23 1    
    45   22   24 1    
    46   22   90 1    
    47   23   91 1    
    48   23   92 1    
    49   23   93 1    
    50   24   25 am   BACKBONE|DICT|INTERRES
    51   24   94 1    
    52   25   26 2    
    53   25   27 1    
    54   27   28 1    
    55   27   29 1    
    56   27   95 1    
    57   28   96 1    
    58   28   97 1    
    59   28   98 1    
    60   29   30 am   BACKBONE|DICT|INTERRES
    61   29   99 1    
    62   30   31 2    
    63   30   32 1    
    64   32   33 1    
    65   32   34 1    
    66   32  100 1    
    67   33  101 1    
    68   33  102 1    
    69   33  103 1    
    70   34   35 am   BACKBONE|DICT|INTERRES
    71   34  104 1    
    72   35   36 2    
    73   37   38 2    
    74   37   39 am   BACKBONE|DICT|INTERRES
    75   39   40 1    
    76   39  105 1    
    77   40   41 1    
    78   40   42 1    
    79   40  106 1    
    80   41  107 1    
    81   41  108 1    
    82   41  109 1    
    83   42   43 2    
    84   42   44 am   BACKBONE|DICT|INTERRES
    85   44   45 1    
    86   44  110 1    
    87   45   46 1    
    88   45   47 1    
    89   45  111 1    
    90   46  112 1    
    91   46  113 1    
    92   46  114 1    
    93   47   48 2    
    94   47   49 am   BACKBONE|DICT|INTERRES
    95   49   50 1    
    96   49  115 1    
    97   50   51 1    
    98   50   52 1    
    99   50  116 1    
   100   51  117 1    
   101   51  118 1    
   102   51  119 1    
   103   52   53 2    
   104   52   54 am   BACKBONE|DICT|INTERRES
   105   54   55 1    
   106   54  120 1    
   107   55   56 1    
   108   55   57 1    
   109   55  121 1    
   110   56  122 1    
   111   56  123 1    
   112   56  124 1    
   113   57   58 2    
   114   57   59 am   BACKBONE|DICT|INTERRES
   115   59   60 1    
   116   59  125 1    
   117   60   61 1    
   118   60   62 1    
   119   60  126 1    
   120   61  127 1    
   121   61  128 1    
   122   61  129 1    
   123   62   63 2    
   124   62   64 am   BACKBONE|DICT|INTERRES
   125   64   65 1    
   126   64  130 1    
   127   65   66 1    
   128   65   69 1    
   129   65  131 1    
   130   66   67 am   BACKBONE|DICT|INTERRES
   131   66   68 2    
   132   67  132 1    
   133   67  133 1    
   134   69   70 1    
   135   69  134 1    
   136   69  135 1    
   137   70   71 1    
   138   71  136 1    
   139   71  137 1    
@<TRIPOS>SUBSTRUCTURE
     1 UNK         1 GROUP             0       ****    0 ROOT    
