@<TRIPOS>MOLECULE
3R137
137   139    1
SMALL
USER_CHARGES


@<TRIPOS>ATOM
      1 CA         27.4632   -6.4399    0.5834 C.3       0 UNK        -0.2020 
      2 C          27.5272   -5.0841   -0.1026 C.2       0 UNK         0.4855 
      3 O          27.4000   -5.0164   -1.3244 O.2       0 UNK        -0.5197 
      4 N          27.7187   -4.0110    0.6775 N.am      1 UNK        -0.4892 
      5 CA         27.8383   -2.5955    0.2831 C.3       1 UNK         0.0835 
      6 C6         29.0011   -2.2913   -0.6967 C.3       12 UNK        -0.0855 
      7 S7         30.6424   -2.7704   -0.0489 S.3       12 UNK        -0.2931 
      8 C8         31.0926   -4.1944   -1.0976 C.3       12 UNK         0.0378 
      9 C9         31.1562   -3.8245   -2.5728 C.ar      12 UNK        -0.0802 
     10 C10        32.2214   -3.0692   -3.0697 C.ar      12 UNK        -0.0944 
     11 C11        32.2592   -2.6913   -4.4159 C.ar      12 UNK        -0.0787 
     12 C12        31.2143   -3.0725   -5.2660 C.ar      12 UNK        -0.0862 
     13 C13        30.1509   -3.8461   -4.7839 C.ar      12 UNK        -0.0733 
     14 C14        30.1402   -4.2313   -3.4409 C.ar      12 UNK        -0.0832 
     15 C15        29.0279   -4.2864   -5.7158 C.3       12 UNK         0.0240 
     16 S16        27.3711   -3.8733   -5.0634 S.3       12 UNK        -0.2522 
     17 C17        26.4031   -3.7949   -6.6131 C.3       12 UNK        -0.0967 
     18 CA         26.2051   -2.3848   -7.2435 C.3       5 UNK         0.0660 
     19 N          25.0117   -1.6822   -6.7631 N.am      5 UNK        -0.4015 
     20 C          24.4301   -0.6790   -7.4417 C.2       4 UNK         0.4946 
     21 O          24.8301   -0.2662   -8.5317 O.2       4 UNK        -0.5353 
     22 CA         23.2174    0.0010   -6.7876 C.3       4 UNK         0.0277 
     23 CB         21.9601   -0.8733   -6.9225 C.3       4 UNK        -0.1981 
     24 N          23.4416    0.3343   -5.3808 N.am      4 UNK        -0.4209 
     25 C          24.3610    1.2063   -4.9421 C.2       3 UNK         0.4942 
     26 O          25.1128    1.8433   -5.6781 O.2       3 UNK        -0.5208 
     27 CA         24.4880    1.3697   -3.4187 C.3       3 UNK         0.0250 
     28 CB         23.5117    2.4414   -2.9082 C.3       3 UNK        -0.1990 
     29 N          24.2867    0.1234   -2.6717 N.am      3 UNK        -0.4232 
     30 C          25.0324   -0.9804   -2.8175 C.2       2 UNK         0.4993 
     31 O          25.9389   -1.0922   -3.6466 O.2       2 UNK        -0.5286 
     32 CA         24.6864   -2.1693   -1.9082 C.3       2 UNK         0.0209 
     33 CB         24.0771   -3.3200   -2.7257 C.3       2 UNK        -0.1931 
     34 N          25.8776   -2.6492   -1.2106 N.am      2 UNK        -0.4546 
     35 C          26.5207   -1.9863   -0.2419 C.2       1 UNK         0.5154 
     36 O          26.1091   -0.9317    0.2449 O.2       1 UNK        -0.5181 
     37 C          27.4454   -1.4739   -7.1755 C.2       5 UNK         0.5014 
     38 O          28.2412   -1.4818   -8.1136 O.2       5 UNK        -0.5248 
     39 N          27.5701   -0.6882   -6.0936 N.am      6 UNK        -0.4434 
     40 CA         28.6486    0.2786   -5.8958 C.3       6 UNK         0.0363 
     41 CB         28.5416    0.9038   -4.4972 C.3       6 UNK        -0.1936 
     42 C          28.6750    1.3589   -6.9875 C.2       6 UNK         0.5081 
     43 O          29.7479    1.6518   -7.5136 O.2       6 UNK        -0.5248 
     44 N          27.4976    1.8902   -7.3469 N.am      7 UNK        -0.4718 
     45 CA         27.3176    2.8287   -8.4556 C.3       7 UNK         0.0273 
     46 CB         25.8854    3.3857   -8.4415 C.3       7 UNK        -0.1935 
     47 C          27.6449    2.2052   -9.8218 C.2       7 UNK         0.5018 
     48 O          28.3429    2.8385  -10.6136 O.2       7 UNK        -0.5186 
     49 N          27.1647    0.9758  -10.0653 N.am      8 UNK        -0.4240 
     50 CA         27.4150    0.2194  -11.2973 C.3       8 UNK         0.0235 
     51 CB         26.5369   -1.0417  -11.3225 C.3       8 UNK        -0.2000 
     52 C          28.8967   -0.1456  -11.4949 C.2       8 UNK         0.4941 
     53 O          29.4073   -0.0195  -12.6084 O.2       8 UNK        -0.5273 
     54 N          29.5626   -0.5711  -10.4132 N.am      9 UNK        -0.4262 
     55 CA         30.9899   -0.9001  -10.3843 C.3       9 UNK         0.0264 
     56 CB         31.2775   -1.7484   -9.1335 C.3       9 UNK        -0.1955 
     57 C          31.9102    0.3337  -10.3979 C.2       9 UNK         0.5031 
     58 O          33.0997    0.1779  -10.6781 O.2       9 UNK        -0.5390 
     59 N          31.3637    1.5123  -10.0593 N.am      10 UNK        -0.4204 
     60 CA         32.0628    2.7742   -9.7846 C.3       10 UNK         0.0237 
     61 CB         32.7355    3.3347  -11.0559 C.3       10 UNK        -0.1985 
     62 C          33.0250    2.6336   -8.5876 C.2       10 UNK         0.4970 
     63 O          34.1807    3.0563   -8.6604 O.2       10 UNK        -0.4914 
     64 N          32.5230    2.0035   -7.5187 N.am      11 UNK        -0.4285 
     65 CA         33.2370    1.7309   -6.2684 C.3       11 UNK         0.1007 
     66 C          33.5578    3.0310   -5.4795 C.2       11 UNK         0.5703 
     67 N          34.7317    3.1174   -4.8686 N.am      11 UNK        -0.7361 
     68 O          32.7403    3.9459   -5.3919 O.2       11 UNK        -0.4986 
     69 C69        32.4474    0.7060   -5.4099 C.3       12 UNK        -0.0947 
     70 S70        33.5265   -0.2174   -4.2678 S.3       12 UNK        -0.2240 
     71 C71        33.4527   -1.9065   -4.9463 C.3       12 UNK         0.0194 
     72 H72        28.2446   -7.0923    0.1945 H         1 UNK         0.0906 
     73 H73        27.5941   -6.3602    1.6624 H         1 UNK         0.0906 
     74 H74        26.4995   -6.9112    0.3920 H         1 UNK         0.0906 
     75 H75        27.7905   -4.1613    1.6747 H         1 UNK         0.3140 
     76 H76        28.0591   -2.0627    1.2099 H         1 UNK         0.1085 
     77 H77        28.8138   -2.7600   -1.6615 H         1 UNK         0.0836 
     78 H78        29.0460   -1.2200   -0.9030 H         1 UNK         0.0836 
     79 H79        32.0643   -4.5742   -0.7786 H         1 UNK         0.0731 
     80 H80        30.3813   -5.0042   -0.9315 H         1 UNK         0.0731 
     81 H81        33.0178   -2.7642   -2.4042 H         1 UNK         0.1312 
     82 H82        31.2379   -2.7821   -6.3069 H         1 UNK         0.1406 
     83 H83        29.3179   -4.8257   -3.0654 H         1 UNK         0.1631 
     84 H84        29.1588   -3.8263   -6.6961 H         1 UNK         0.0717 
     85 H85        29.0908   -5.3643   -5.8702 H         1 UNK         0.0717 
     86 H86        26.8886   -4.4444   -7.3437 H         1 UNK         0.0934 
     87 H87        25.4339   -4.2619   -6.4314 H         1 UNK         0.0934 
     88 H88        26.0307   -2.5668   -8.3065 H         1 UNK         0.0739 
     89 H89        24.6754   -1.9251   -5.8430 H         1 UNK         0.3093 
     90 H90        23.0389    0.9361   -7.3234 H         1 UNK         0.0818 
     91 H91        21.0755   -0.3551   -6.5518 H         1 UNK         0.0819 
     92 H92        21.7710   -1.1239   -7.9675 H         1 UNK         0.0819 
     93 H93        22.0539   -1.8116   -6.3745 H         1 UNK         0.0819 
     94 H94        22.8670   -0.1376   -4.6981 H         1 UNK         0.3041 
     95 H95        25.5036    1.7117   -3.2113 H         1 UNK         0.0784 
     96 H96        23.6571    3.3843   -3.4375 H         1 UNK         0.0793 
     97 H97        22.4718    2.1446   -3.0511 H         1 UNK         0.0793 
     98 H98        23.6618    2.6425   -1.8472 H         1 UNK         0.0793 
     99 H99        23.5630    0.1342   -1.9670 H         1 UNK         0.3024 
    100 H100       23.9577   -1.8528   -1.1587 H         1 UNK         0.1171 
    101 H101       23.7977   -4.1561   -2.0843 H         1 UNK         0.0786 
    102 H102       23.1760   -2.9966   -3.2482 H         1 UNK         0.0786 
    103 H103       24.7743   -3.6951   -3.4758 H         1 UNK         0.0786 
    104 H104       26.3085   -3.5062   -1.5504 H         1 UNK         0.2977 
    105 H105       26.9049   -0.7944   -5.3309 H         1 UNK         0.3127 
    106 H106       29.5878   -0.2740   -5.9508 H         1 UNK         0.0770 
    107 H107       27.5978    1.4321   -4.3654 H         1 UNK         0.0814 
    108 H108       29.3430    1.6227   -4.3251 H         1 UNK         0.0814 
    109 H109       28.6116    0.1433   -3.7188 H         1 UNK         0.0814 
    110 H110       26.6619    1.6358   -6.8257 H         1 UNK         0.2983 
    111 H111       28.0077    3.6610   -8.3002 H         1 UNK         0.0947 
    112 H112       25.7291    4.0874   -9.2619 H         1 UNK         0.0806 
    113 H113       25.6790    3.9201   -7.5140 H         1 UNK         0.0806 
    114 H114       25.1426    2.5930   -8.5407 H         1 UNK         0.0806 
    115 H115       26.5684    0.5364   -9.3707 H         1 UNK         0.3000 
    116 H116       27.1192    0.8531  -12.1361 H         1 UNK         0.0850 
    117 H117       26.6813   -1.5997  -12.2486 H         1 UNK         0.0810 
    118 H118       25.4783   -0.7894  -11.2574 H         1 UNK         0.0810 
    119 H119       26.7718   -1.7134  -10.4967 H         1 UNK         0.0810 
    120 H120       29.0456   -0.7220   -9.5464 H         1 UNK         0.3040 
    121 H121       31.2248   -1.4974  -11.2677 H         1 UNK         0.0766 
    122 H122       30.6801   -2.6603   -9.1257 H         1 UNK         0.0812 
    123 H123       31.0568   -1.1959   -8.2192 H         1 UNK         0.0812 
    124 H124       32.3261   -2.0461   -9.0914 H         1 UNK         0.0812 
    125 H125       30.3800    1.5095   -9.8199 H         1 UNK         0.3205 
    126 H126       31.2943    3.4853   -9.4774 H         1 UNK         0.0754 
    127 H127       33.1462    4.3282  -10.8722 H         1 UNK         0.0769 
    128 H128       32.0203    3.4254  -11.8734 H         1 UNK         0.0769 
    129 H129       33.5564    2.7030  -11.3964 H         1 UNK         0.0769 
    130 H130       31.5311    1.7707   -7.5262 H         1 UNK         0.2981 
    131 H131       34.1832    1.2714   -6.5622 H         1 UNK         0.0541 
    132 H132       35.3957    2.3601   -4.9128 H         1 UNK         0.3459 
    133 H133       34.9519    3.9483   -4.3426 H         1 UNK         0.3459 
    134 H134       31.6570    1.1932   -4.8375 H         1 UNK         0.0612 
    135 H135       31.9436   -0.0151   -6.0546 H         1 UNK         0.0612 
    136 H136       34.3670   -2.4302   -4.6641 H         1 UNK         0.0624 
    137 H137       33.4512   -1.8691   -6.0369 H         1 UNK         0.0624 
@<TRIPOS>BOND
     1    1    2 1    
     2    1   72 1    
     3    1   73 1    
     4    1   74 1    
     5    2    3 2    
     6    2    4 am   BACKBONE|DICT|INTERRES
     7    4    5 1    
     8    4   75 1    
     9    5    6 1    
    10    5   35 1    
    11    5   76 1    
    12    6    7 1    
    13    6   77 1    
    14    6   78 1    
    15    7    8 1    
    16    8    9 1    
    17    8   79 1    
    18    8   80 1    
    19    9   10 ar   
    20    9   14 ar   
    21   10   11 ar   
    22   10   81 1    
    23   11   12 ar   
    24   11   71 1    
    25   12   13 ar   
    26   12   82 1    
    27   13   14 ar   
    28   13   15 1    
    29   14   83 1    
    30   15   16 1    
    31   15   84 1    
    32   15   85 1    
    33   16   17 1    
    34   17   18 1    
    35   17   86 1    
    36   17   87 1    
    37   18   19 1    
    38   18   37 1    
    39   18   88 1    
    40   19   20 am   BACKBONE|DICT|INTERRES
    41   19   89 1    
    42   20   21 2    
    43   20   22 1    
    44   22   23 1    
    45   22   24 1    
    46   22   90 1    
    47   23   91 1    
    48   23   92 1    
    49   23   93 1    
    50   24   25 am   BACKBONE|DICT|INTERRES
    51   24   94 1    
    52   25   26 2    
    53   25   27 1    
    54   27   28 1    
    55   27   29 1    
    56   27   95 1    
    57   28   96 1    
    58   28   97 1    
    59   28   98 1    
    60   29   30 am   BACKBONE|DICT|INTERRES
    61   29   99 1    
    62   30   31 2    
    63   30   32 1    
    64   32   33 1    
    65   32   34 1    
    66   32  100 1    
    67   33  101 1    
    68   33  102 1    
    69   33  103 1    
    70   34   35 am   BACKBONE|DICT|INTERRES
    71   34  104 1    
    72   35   36 2    
    73   37   38 2    
    74   37   39 am   BACKBONE|DICT|INTERRES
    75   39   40 1    
    76   39  105 1    
    77   40   41 1    
    78   40   42 1    
    79   40  106 1    
    80   41  107 1    
    81   41  108 1    
    82   41  109 1    
    83   42   43 2    
    84   42   44 am   BACKBONE|DICT|INTERRES
    85   44   45 1    
    86   44  110 1    
    87   45   46 1    
    88   45   47 1    
    89   45  111 1    
    90   46  112 1    
    91   46  113 1    
    92   46  114 1    
    93   47   48 2    
    94   47   49 am   BACKBONE|DICT|INTERRES
    95   49   50 1    
    96   49  115 1    
    97   50   51 1    
    98   50   52 1    
    99   50  116 1    
   100   51  117 1    
   101   51  118 1    
   102   51  119 1    
   103   52   53 2    
   104   52   54 am   BACKBONE|DICT|INTERRES
   105   54   55 1    
   106   54  120 1    
   107   55   56 1    
   108   55   57 1    
   109   55  121 1    
   110   56  122 1    
   111   56  123 1    
   112   56  124 1    
   113   57   58 2    
   114   57   59 am   BACKBONE|DICT|INTERRES
   115   59   60 1    
   116   59  125 1    
   117   60   61 1    
   118   60   62 1    
   119   60  126 1    
   120   61  127 1    
   121   61  128 1    
   122   61  129 1    
   123   62   63 2    
   124   62   64 am   BACKBONE|DICT|INTERRES
   125   64   65 1    
   126   64  130 1    
   127   65   66 1    
   128   65   69 1    
   129   65  131 1    
   130   66   67 am   BACKBONE|DICT|INTERRES
   131   66   68 2    
   132   67  132 1    
   133   67  133 1    
   134   69   70 1    
   135   69  134 1    
   136   69  135 1    
   137   70   71 1    
   138   71  136 1    
   139   71  137 1    
@<TRIPOS>SUBSTRUCTURE
     1 UNK         1 GROUP             0       ****    0 ROOT    
