@<TRIPOS>MOLECULE
3R137
137   139    1
SMALL
USER_CHARGES


@<TRIPOS>ATOM
      1 CA         24.8108   -5.4092   -4.8896 C.3       0 UNK        -0.2020 
      2 C          24.9998   -4.4618   -3.7143 C.2       0 UNK         0.4855 
      3 O          24.2810   -3.4655   -3.6108 O.2       0 UNK        -0.5197 
      4 N          25.9673   -4.7640   -2.8378 N.am      1 UNK        -0.4892 
      5 CA         26.3362   -3.9750   -1.6557 C.3       1 UNK         0.0835 
      6 C6         27.2370   -4.7706   -0.6712 C.3       12 UNK        -0.0855 
      7 S7         28.6400   -5.6617   -1.4291 S.3       12 UNK        -0.2931 
      8 C8         30.0608   -4.5560   -1.1134 C.3       12 UNK         0.0378 
      9 C9         30.4173   -3.6925   -2.3190 C.ar      12 UNK        -0.0802 
     10 C10        30.6642   -2.3231   -2.1673 C.ar      12 UNK        -0.0944 
     11 C11        31.0226   -1.5285   -3.2639 C.ar      12 UNK        -0.0787 
     12 C12        31.1052   -2.1239   -4.5301 C.ar      12 UNK        -0.0862 
     13 C13        30.8760   -3.4918   -4.6919 C.ar      12 UNK        -0.0733 
     14 C14        30.5456   -4.2720   -3.5844 C.ar      12 UNK        -0.0832 
     15 C15        30.9570   -4.1222   -6.0712 C.3       12 UNK         0.0240 
     16 S16        29.3784   -4.1357   -7.0057 S.3       12 UNK        -0.2522 
     17 C17        28.1435   -3.2047   -6.0265 C.3       12 UNK        -0.0967 
     18 CA         27.4648   -2.0597   -6.8168 C.3       5 UNK         0.0660 
     19 N          26.0727   -1.8847   -6.3867 N.am      5 UNK        -0.4015 
     20 C          25.1374   -1.2545   -7.1096 C.2       4 UNK         0.4946 
     21 O          25.3489   -0.7646   -8.2186 O.2       4 UNK        -0.5353 
     22 CA         23.7450   -1.1102   -6.4746 C.3       4 UNK         0.0277 
     23 CB         22.8933   -2.3651   -6.7206 C.3       4 UNK        -0.1981 
     24 N          23.7951   -0.8109   -5.0394 N.am      4 UNK        -0.4209 
     25 C          24.2177    0.3606   -4.5430 C.2       3 UNK         0.4942 
     26 O          24.6697    1.2659   -5.2403 O.2       3 UNK        -0.5208 
     27 CA         24.1842    0.5504   -3.0254 C.3       3 UNK         0.0250 
     28 CB         22.9835   -0.1324   -2.3409 C.3       3 UNK        -0.1990 
     29 N          25.4294    0.0198   -2.4961 N.am      3 UNK        -0.4232 
     30 C          26.1611    0.5134   -1.4934 C.2       2 UNK         0.4993 
     31 O          25.8740    1.5383   -0.8732 O.2       2 UNK        -0.5286 
     32 CA         27.4086   -0.3146   -1.1084 C.3       2 UNK         0.0209 
     33 CB         28.0801    0.1769    0.1869 C.3       2 UNK        -0.1931 
     34 N          27.0878   -1.7409   -0.9737 N.am      2 UNK        -0.4546 
     35 C          26.8992   -2.5794   -2.0025 C.2       1 UNK         0.5154 
     36 O          27.0625   -2.2297   -3.1757 O.2       1 UNK        -0.5181 
     37 C          28.2505   -0.7271   -6.7504 C.2       5 UNK         0.5014 
     38 O          29.1272   -0.4868   -7.5850 O.2       5 UNK        -0.5248 
     39 N          27.8785    0.1439   -5.7978 N.am      6 UNK        -0.4434 
     40 CA         28.3621    1.5218   -5.6963 C.3       6 UNK         0.0363 
     41 CB         28.0234    2.1082   -4.3176 C.3       6 UNK        -0.1936 
     42 C          27.8109    2.4151   -6.8183 C.2       6 UNK         0.5081 
     43 O          28.5781    3.1747   -7.4058 O.2       6 UNK        -0.5248 
     44 N          26.5133    2.2881   -7.1348 N.am      7 UNK        -0.4718 
     45 CA         25.8532    2.9815   -8.2491 C.3       7 UNK         0.0273 
     46 CB         24.3370    2.7399   -8.1895 C.3       7 UNK        -0.1935 
     47 C          26.4137    2.5806   -9.6250 C.2       7 UNK         0.5018 
     48 O          26.5089    3.4302  -10.5110 O.2       7 UNK        -0.5186 
     49 N          26.8252    1.3119   -9.7597 N.am      8 UNK        -0.4240 
     50 CA         27.5764    0.7858  -10.9031 C.3       8 UNK         0.0235 
     51 CB         27.5261   -0.7512  -10.8672 C.3       8 UNK        -0.2000 
     52 C          29.0392    1.2757  -10.9677 C.2       8 UNK         0.4941 
     53 O          29.6987    1.0293  -11.9781 O.2       8 UNK        -0.5273 
     54 N          29.5242    1.9383   -9.9042 N.am      9 UNK        -0.4262 
     55 CA         30.8714    2.4893   -9.7153 C.3       9 UNK         0.0264 
     56 CB         31.1585    3.6114  -10.7355 C.3       9 UNK        -0.1955 
     57 C          31.9798    1.4222   -9.6756 C.2       9 UNK         0.5031 
     58 O          33.1381    1.7399   -9.9523 O.2       9 UNK        -0.5390 
     59 N          31.6306    0.1819   -9.3060 N.am      10 UNK        -0.4204 
     60 CA         32.5510   -0.9582   -9.2891 C.3       10 UNK         0.0237 
     61 CB         31.7373   -2.2534   -9.1927 C.3       10 UNK        -0.1985 
     62 C          33.6229   -0.8738   -8.1865 C.2       10 UNK         0.4970 
     63 O          34.7133   -1.4152   -8.3710 O.2       10 UNK        -0.4914 
     64 N          33.3116   -0.1722   -7.0897 N.am      11 UNK        -0.4285 
     65 CA         34.2622    0.2300   -6.0395 C.3       11 UNK         0.1007 
     66 C          34.9426    1.6081   -6.3004 C.2       11 UNK         0.5703 
     67 N          34.7265    2.2670   -7.4342 N.am      11 UNK        -0.7361 
     68 O          35.7083    2.0844   -5.4656 O.2       11 UNK        -0.4986 
     69 C69        33.6492    0.1153   -4.6144 C.3       12 UNK        -0.0947 
     70 S70        32.0074    0.8978   -4.4300 S.3       12 UNK        -0.2240 
     71 C71        31.3138   -0.0434   -3.0217 C.3       12 UNK         0.0194 
     72 H72        25.0698   -4.9117   -5.8234 H         1 UNK         0.0906 
     73 H73        23.7704   -5.7275   -4.9498 H         1 UNK         0.0906 
     74 H74        25.4314   -6.3004   -4.7975 H         1 UNK         0.0906 
     75 H75        26.5543   -5.5706   -2.9990 H         1 UNK         0.3140 
     76 H76        25.3996   -3.7716   -1.1311 H         1 UNK         0.1085 
     77 H77        26.6209   -5.5332   -0.1920 H         1 UNK         0.0836 
     78 H78        27.5902   -4.1511    0.1544 H         1 UNK         0.0836 
     79 H79        29.8707   -3.9413   -0.2326 H         1 UNK         0.0731 
     80 H80        30.9275   -5.1722   -0.8710 H         1 UNK         0.0731 
     81 H81        30.5873   -1.8725   -1.1871 H         1 UNK         0.1312 
     82 H82        31.3445   -1.5353   -5.4032 H         1 UNK         0.1406 
     83 H83        30.3669   -5.3310   -3.7122 H         1 UNK         0.1631 
     84 H84        31.3061   -5.1519   -5.9810 H         1 UNK         0.0717 
     85 H85        31.7215   -3.6124   -6.6566 H         1 UNK         0.0717 
     86 H86        27.4012   -3.9468   -5.7316 H         1 UNK         0.0934 
     87 H87        28.5348   -2.8292   -5.0865 H         1 UNK         0.0934 
     88 H88        27.4305   -2.3518   -7.8688 H         1 UNK         0.0739 
     89 H89        25.8308   -2.2367   -5.4700 H         1 UNK         0.3093 
     90 H90        23.2495   -0.2732   -6.9713 H         1 UNK         0.0818 
     91 H91        22.8386   -2.5969   -7.7852 H         1 UNK         0.0819 
     92 H92        23.3009   -3.2404   -6.2166 H         1 UNK         0.0819 
     93 H93        21.8713   -2.2238   -6.3685 H         1 UNK         0.0819 
     94 H94        23.5187   -1.5516   -4.4042 H         1 UNK         0.3041 
     95 H95        24.1293    1.6248   -2.8358 H         1 UNK         0.0784 
     96 H96        22.0426    0.1769   -2.7980 H         1 UNK         0.0793 
     97 H97        23.0388   -1.2203   -2.3953 H         1 UNK         0.0793 
     98 H98        22.9332    0.1389   -1.2863 H         1 UNK         0.0793 
     99 H99        25.7811   -0.8238   -2.9409 H         1 UNK         0.3024 
    100 H100       28.1311   -0.1997   -1.9188 H         1 UNK         0.1171 
    101 H101       28.3875    1.2197    0.0963 H         1 UNK         0.0786 
    102 H102       27.4069    0.1077    1.0422 H         1 UNK         0.0786 
    103 H103       28.9748   -0.4027    0.4147 H         1 UNK         0.0786 
    104 H104       26.8868   -2.0626   -0.0377 H         1 UNK         0.2977 
    105 H105       27.1489   -0.1316   -5.1589 H         1 UNK         0.3127 
    106 H106       29.4487    1.5035   -5.7975 H         1 UNK         0.0770 
    107 H107       26.9485    2.1506   -4.1421 H         1 UNK         0.0814 
    108 H108       28.4061    3.1256   -4.2264 H         1 UNK         0.0814 
    109 H109       28.4744    1.5254   -3.5177 H         1 UNK         0.0814 
    110 H110       25.9170    1.7112   -6.5451 H         1 UNK         0.2983 
    111 H111       26.0329    4.0514   -8.1233 H         1 UNK         0.0947 
    112 H112       24.0925    1.6830   -8.2960 H         1 UNK         0.0806 
    113 H113       23.8244    3.2758   -8.9894 H         1 UNK         0.0806 
    114 H114       23.9167    3.0874   -7.2455 H         1 UNK         0.0806 
    115 H115       26.6142    0.6587   -9.0116 H         1 UNK         0.3000 
    116 H116       27.0824    1.1230  -11.8167 H         1 UNK         0.0850 
    117 H117       28.0123   -1.1797  -11.7446 H         1 UNK         0.0810 
    118 H118       26.4987   -1.1157  -10.8561 H         1 UNK         0.0810 
    119 H119       28.0326   -1.1506   -9.9884 H         1 UNK         0.0810 
    120 H120       28.8998    2.1004   -9.1214 H         1 UNK         0.3040 
    121 H121       30.8728    2.9455   -8.7249 H         1 UNK         0.0766 
    122 H122       31.2531    3.2228  -11.7498 H         1 UNK         0.0812 
    123 H123       32.0896    4.1278  -10.4986 H         1 UNK         0.0812 
    124 H124       30.3660    4.3598  -10.7341 H         1 UNK         0.0812 
    125 H125       30.6721    0.0057   -9.0210 H         1 UNK         0.3205 
    126 H126       33.0828   -0.9716  -10.2431 H         1 UNK         0.0754 
    127 H127       32.3826   -3.1259   -9.0811 H         1 UNK         0.0769 
    128 H128       31.1333   -2.4071  -10.0872 H         1 UNK         0.0769 
    129 H129       31.0603   -2.2223   -8.3416 H         1 UNK         0.0769 
    130 H130       32.3946    0.2443   -7.0255 H         1 UNK         0.2981 
    131 H131       35.0951   -0.4750   -6.0562 H         1 UNK         0.0541 
    132 H132       35.1896    3.1506   -7.5744 H         1 UNK         0.3459 
    133 H133       34.1479    1.8869   -8.1732 H         1 UNK         0.3459 
    134 H134       34.3177    0.5305   -3.8582 H         1 UNK         0.0612 
    135 H135       33.5650   -0.9412   -4.3613 H         1 UNK         0.0612 
    136 H136       32.0036    0.0508   -2.1818 H         1 UNK         0.0624 
    137 H137       30.3894    0.4428   -2.7127 H         1 UNK         0.0624 
@<TRIPOS>BOND
     1    1    2 1    
     2    1   72 1    
     3    1   73 1    
     4    1   74 1    
     5    2    3 2    
     6    2    4 am   BACKBONE|DICT|INTERRES
     7    4    5 1    
     8    4   75 1    
     9    5    6 1    
    10    5   35 1    
    11    5   76 1    
    12    6    7 1    
    13    6   77 1    
    14    6   78 1    
    15    7    8 1    
    16    8    9 1    
    17    8   79 1    
    18    8   80 1    
    19    9   10 ar   
    20    9   14 ar   
    21   10   11 ar   
    22   10   81 1    
    23   11   12 ar   
    24   11   71 1    
    25   12   13 ar   
    26   12   82 1    
    27   13   14 ar   
    28   13   15 1    
    29   14   83 1    
    30   15   16 1    
    31   15   84 1    
    32   15   85 1    
    33   16   17 1    
    34   17   18 1    
    35   17   86 1    
    36   17   87 1    
    37   18   19 1    
    38   18   37 1    
    39   18   88 1    
    40   19   20 am   BACKBONE|DICT|INTERRES
    41   19   89 1    
    42   20   21 2    
    43   20   22 1    
    44   22   23 1    
    45   22   24 1    
    46   22   90 1    
    47   23   91 1    
    48   23   92 1    
    49   23   93 1    
    50   24   25 am   BACKBONE|DICT|INTERRES
    51   24   94 1    
    52   25   26 2    
    53   25   27 1    
    54   27   28 1    
    55   27   29 1    
    56   27   95 1    
    57   28   96 1    
    58   28   97 1    
    59   28   98 1    
    60   29   30 am   BACKBONE|DICT|INTERRES
    61   29   99 1    
    62   30   31 2    
    63   30   32 1    
    64   32   33 1    
    65   32   34 1    
    66   32  100 1    
    67   33  101 1    
    68   33  102 1    
    69   33  103 1    
    70   34   35 am   BACKBONE|DICT|INTERRES
    71   34  104 1    
    72   35   36 2    
    73   37   38 2    
    74   37   39 am   BACKBONE|DICT|INTERRES
    75   39   40 1    
    76   39  105 1    
    77   40   41 1    
    78   40   42 1    
    79   40  106 1    
    80   41  107 1    
    81   41  108 1    
    82   41  109 1    
    83   42   43 2    
    84   42   44 am   BACKBONE|DICT|INTERRES
    85   44   45 1    
    86   44  110 1    
    87   45   46 1    
    88   45   47 1    
    89   45  111 1    
    90   46  112 1    
    91   46  113 1    
    92   46  114 1    
    93   47   48 2    
    94   47   49 am   BACKBONE|DICT|INTERRES
    95   49   50 1    
    96   49  115 1    
    97   50   51 1    
    98   50   52 1    
    99   50  116 1    
   100   51  117 1    
   101   51  118 1    
   102   51  119 1    
   103   52   53 2    
   104   52   54 am   BACKBONE|DICT|INTERRES
   105   54   55 1    
   106   54  120 1    
   107   55   56 1    
   108   55   57 1    
   109   55  121 1    
   110   56  122 1    
   111   56  123 1    
   112   56  124 1    
   113   57   58 2    
   114   57   59 am   BACKBONE|DICT|INTERRES
   115   59   60 1    
   116   59  125 1    
   117   60   61 1    
   118   60   62 1    
   119   60  126 1    
   120   61  127 1    
   121   61  128 1    
   122   61  129 1    
   123   62   63 2    
   124   62   64 am   BACKBONE|DICT|INTERRES
   125   64   65 1    
   126   64  130 1    
   127   65   66 1    
   128   65   69 1    
   129   65  131 1    
   130   66   67 am   BACKBONE|DICT|INTERRES
   131   66   68 2    
   132   67  132 1    
   133   67  133 1    
   134   69   70 1    
   135   69  134 1    
   136   69  135 1    
   137   70   71 1    
   138   71  136 1    
   139   71  137 1    
@<TRIPOS>SUBSTRUCTURE
     1 UNK         1 GROUP             0       ****    0 ROOT    
