@<TRIPOS>MOLECULE
3R137
137   139    1
SMALL
USER_CHARGES


@<TRIPOS>ATOM
      1 CA         28.5926   -2.6389    2.5456 C.3       0 UNK        -0.2020 
      2 C          28.5530   -2.4954    1.0322 C.2       0 UNK         0.4855 
      3 O          29.0399   -1.4996    0.4956 O.2       0 UNK        -0.5197 
      4 N          27.9682   -3.4762    0.3333 N.am      1 UNK        -0.4892 
      5 CA         27.8495   -3.5343   -1.1307 C.3       1 UNK         0.0835 
      6 C6         27.7332   -5.0009   -1.6279 C.3       12 UNK        -0.0855 
      7 S7         29.0350   -6.1664   -1.0677 S.3       12 UNK        -0.2931 
      8 C8         30.5859   -5.1904   -1.0253 C.3       12 UNK         0.0378 
      9 C9         30.9661   -4.5016   -2.3364 C.ar      12 UNK        -0.0802 
     10 C10        31.7490   -3.3414   -2.2911 C.ar      12 UNK        -0.0944 
     11 C11        32.1014   -2.6717   -3.4673 C.ar      12 UNK        -0.0787 
     12 C12        31.6697   -3.1727   -4.6974 C.ar      12 UNK        -0.0862 
     13 C13        30.8544   -4.3034   -4.7547 C.ar      12 UNK        -0.0733 
     14 C14        30.5394   -4.9860   -3.5791 C.ar      12 UNK        -0.0832 
     15 C15        30.2384   -4.7360   -6.0743 C.3       12 UNK         0.0240 
     16 S16        28.4864   -4.2340   -6.1518 S.3       12 UNK        -0.2522 
     17 C17        28.6030   -2.4211   -5.9506 C.3       12 UNK        -0.0967 
     18 CA         27.6014   -1.6835   -6.8661 C.3       5 UNK         0.0660 
     19 N          26.2308   -1.8248   -6.3770 N.am      5 UNK        -0.4015 
     20 C          25.1961   -2.2565   -7.1081 C.2       4 UNK         0.4946 
     21 O          25.2840   -2.6377   -8.2763 O.2       4 UNK        -0.5353 
     22 CA         23.8127   -2.2484   -6.4294 C.3       4 UNK         0.0277 
     23 CB         23.5226   -3.6184   -5.7948 C.3       4 UNK        -0.1981 
     24 N          23.6455   -1.2036   -5.4135 N.am      4 UNK        -0.4209 
     25 C          23.7873    0.1122   -5.6282 C.2       3 UNK         0.4942 
     26 O          24.0757    0.6047   -6.7170 O.2       3 UNK        -0.5208 
     27 CA         23.6428    1.0415   -4.4148 C.3       3 UNK         0.0250 
     28 CB         22.1750    1.4624   -4.2406 C.3       3 UNK        -0.1990 
     29 N          24.1495    0.5058   -3.1453 N.am      3 UNK        -0.4232 
     30 C          25.3506   -0.0474   -2.9142 C.2       2 UNK         0.4993 
     31 O          26.1816   -0.2829   -3.7973 O.2       2 UNK        -0.5286 
     32 CA         25.6857   -0.3404   -1.4376 C.3       2 UNK         0.0209 
     33 CB         24.4448   -0.6826   -0.5795 C.3       2 UNK        -0.1931 
     34 N          26.7187   -1.3654   -1.2573 N.am      2 UNK        -0.4546 
     35 C          26.6734   -2.6546   -1.6203 C.2       1 UNK         0.5154 
     36 O          25.7401   -3.1565   -2.2513 O.2       1 UNK        -0.5181 
     37 C          27.9737   -0.1966   -7.0056 C.2       5 UNK         0.5014 
     38 O          28.6595    0.1575   -7.9674 O.2       5 UNK        -0.5248 
     39 N          27.5328    0.6531   -6.0654 N.am      6 UNK        -0.4434 
     40 CA         27.8719    2.0769   -6.0225 C.3       6 UNK         0.0363 
     41 CB         27.4606    2.6774   -4.6700 C.3       6 UNK        -0.1936 
     42 C          27.2874    2.8921   -7.1869 C.2       6 UNK         0.5081 
     43 O          27.9885    3.7583   -7.7084 O.2       6 UNK        -0.5248 
     44 N          26.0505    2.5921   -7.6162 N.am      7 UNK        -0.4718 
     45 CA         25.4128    3.2592   -8.7618 C.3       7 UNK         0.0273 
     46 CB         23.9010    2.9845   -8.7616 C.3       7 UNK        -0.1935 
     47 C          26.0334    2.8517  -10.1094 C.2       7 UNK         0.5018 
     48 O          25.9985    3.6386  -11.0556 O.2       7 UNK        -0.5186 
     49 N          26.6158    1.6461  -10.1604 N.am      8 UNK        -0.4240 
     50 CA         27.4068    1.1435  -11.2849 C.3       8 UNK         0.0235 
     51 CB         27.3707   -0.3950  -11.2638 C.3       8 UNK        -0.2000 
     52 C          28.8630    1.6492  -11.2610 C.2       8 UNK         0.4941 
     53 O          29.5832    1.4239  -12.2341 O.2       8 UNK        -0.5273 
     54 N          29.2763    2.2889  -10.1536 N.am      9 UNK        -0.4262 
     55 CA         30.6322    2.7457   -9.8275 C.3       9 UNK         0.0264 
     56 CB         31.0790    3.8778  -10.7763 C.3       9 UNK        -0.1955 
     57 C          31.6532    1.5934   -9.7442 C.2       9 UNK         0.5031 
     58 O          32.8368    1.8010  -10.0210 O.2       9 UNK        -0.5390 
     59 N          31.1915    0.3984   -9.3439 N.am      10 UNK        -0.4204 
     60 CA         31.9931   -0.8290   -9.2956 C.3       10 UNK         0.0237 
     61 CB         31.0638   -2.0418   -9.1365 C.3       10 UNK        -0.1985 
     62 C          33.0892   -0.8186   -8.2149 C.2       10 UNK         0.4970 
     63 O          34.0420   -1.5909   -8.3256 O.2       10 UNK        -0.4914 
     64 N          32.9557    0.0614   -7.2137 N.am      11 UNK        -0.4285 
     65 CA         33.9948    0.3478   -6.2127 C.3       11 UNK         0.1007 
     66 C          35.1738    1.2134   -6.7501 C.2       11 UNK         0.5703 
     67 N          35.1053    1.7788   -7.9514 N.am      11 UNK        -0.7361 
     68 O          36.1800    1.3679   -6.0621 O.2       11 UNK        -0.4986 
     69 C69        33.4095    0.9553   -4.9066 C.3       12 UNK        -0.0947 
     70 S70        32.0319   -0.0091   -4.2023 S.3       12 UNK        -0.2240 
     71 C71        32.9274   -1.3948   -3.4245 C.3       12 UNK         0.0194 
     72 H72        28.0616   -1.8111    3.0148 H         1 UNK         0.0906 
     73 H73        28.1341   -3.5696    2.8795 H         1 UNK         0.0906 
     74 H74        29.6243   -2.6246    2.8960 H         1 UNK         0.0906 
     75 H75        27.5681   -4.2627    0.8256 H         1 UNK         0.3140 
     76 H76        28.7466   -3.0985   -1.5738 H         1 UNK         0.1085 
     77 H77        26.7764   -5.4262   -1.3184 H         1 UNK         0.0836 
     78 H78        27.7213   -5.0181   -2.7196 H         1 UNK         0.0836 
     79 H79        31.3999   -5.8610   -0.7477 H         1 UNK         0.0731 
     80 H80        30.5167   -4.4559   -0.2226 H         1 UNK         0.0731 
     81 H81        32.0760   -2.9524   -1.3362 H         1 UNK         0.1312 
     82 H82        31.9242   -2.6442   -5.6062 H         1 UNK         0.1406 
     83 H83        29.9182   -5.8685   -3.6398 H         1 UNK         0.1631 
     84 H84        30.3074   -5.8198   -6.1780 H         1 UNK         0.0717 
     85 H85        30.7795   -4.3082   -6.9196 H         1 UNK         0.0717 
     86 H86        28.4355   -2.1710   -4.9007 H         1 UNK         0.0934 
     87 H87        29.6221   -2.1049   -6.1690 H         1 UNK         0.0934 
     88 H88        27.6885   -2.1084   -7.8687 H         1 UNK         0.0739 
     89 H89        26.0573   -1.5154   -5.4265 H         1 UNK         0.3093 
     90 H90        23.0710   -2.0651   -7.2096 H         1 UNK         0.0818 
     91 H91        23.6221   -4.4184   -6.5300 H         1 UNK         0.0819 
     92 H92        24.2128   -3.8383   -4.9785 H         1 UNK         0.0819 
     93 H93        22.5075   -3.6681   -5.4004 H         1 UNK         0.0819 
     94 H94        23.4356   -1.5114   -4.4749 H         1 UNK         0.3041 
     95 H95        24.2186    1.9409   -4.6344 H         1 UNK         0.0784 
     96 H96        21.7762    1.8822   -5.1656 H         1 UNK         0.0793 
     97 H97        21.5416    0.6177   -3.9665 H         1 UNK         0.0793 
     98 H98        22.0684    2.2268   -3.4707 H         1 UNK         0.0793 
     99 H99        23.5461    0.6405   -2.3469 H         1 UNK         0.3024 
    100 H100       26.1151    0.5832   -1.0459 H         1 UNK         0.1171 
    101 H101       24.7330   -0.9480    0.4380 H         1 UNK         0.0786 
    102 H102       23.7626    0.1640   -0.4973 H         1 UNK         0.0786 
    103 H103       23.8848   -1.5231   -0.9920 H         1 UNK         0.0786 
    104 H104       27.5437   -1.0760   -0.7390 H         1 UNK         0.2977 
    105 H105       27.0026    0.2935   -5.2727 H         1 UNK         0.3127 
    106 H106       28.9596    2.1491   -6.0948 H         1 UNK         0.0770 
    107 H107       26.3829    2.6434   -4.5215 H         1 UNK         0.0814 
    108 H108       27.7655    3.7224   -4.5998 H         1 UNK         0.0814 
    109 H109       27.9306    2.1469   -3.8416 H         1 UNK         0.0814 
    110 H110       25.5173    1.8526   -7.1653 H         1 UNK         0.2983 
    111 H111       25.5575    4.3362   -8.6486 H         1 UNK         0.0947 
    112 H112       23.4012    3.5644   -9.5386 H         1 UNK         0.0806 
    113 H113       23.4455    3.2567   -7.8093 H         1 UNK         0.0806 
    114 H114       23.6811    1.9334   -8.9519 H         1 UNK         0.0806 
    115 H115       26.6006    1.0759   -9.3263 H         1 UNK         0.3000 
    116 H116       26.9561    1.4849  -12.2194 H         1 UNK         0.0850 
    117 H117       27.9080   -0.8101  -12.1175 H         1 UNK         0.0810 
    118 H118       26.3480   -0.7695  -11.3134 H         1 UNK         0.0810 
    119 H119       27.8319   -0.8003  -10.3627 H         1 UNK         0.0810 
    120 H120       28.5981    2.4278   -9.4150 H         1 UNK         0.3040 
    121 H121       30.5728    3.1649   -8.8220 H         1 UNK         0.0766 
    122 H122       31.2289    3.5178  -11.7945 H         1 UNK         0.0812 
    123 H123       32.0213    4.3162  -10.4457 H         1 UNK         0.0812 
    124 H124       30.3431    4.6812  -10.8083 H         1 UNK         0.0812 
    125 H125       30.2182    0.3239   -9.0533 H         1 UNK         0.3205 
    126 H126       32.5019   -0.9246  -10.2572 H         1 UNK         0.0754 
    127 H127       31.6310   -2.9735   -9.1237 H         1 UNK         0.0769 
    128 H128       30.3525   -2.1065   -9.9602 H         1 UNK         0.0769 
    129 H129       30.4961   -1.9914   -8.2109 H         1 UNK         0.0769 
    130 H130       32.1381    0.6509   -7.1902 H         1 UNK         0.2981 
    131 H131       34.4485   -0.6076   -5.9457 H         1 UNK         0.0541 
    132 H132       34.2930    1.6646   -8.5466 H         1 UNK         0.3459 
    133 H133       35.8843    2.3295   -8.2753 H         1 UNK         0.3459 
    134 H134       33.0412    1.9654   -5.0946 H         1 UNK         0.0612 
    135 H135       34.1845    1.0516   -4.1438 H         1 UNK         0.0612 
    136 H136       33.1794   -1.1204   -2.3991 H         1 UNK         0.0624 
    137 H137       33.8711   -1.5782   -3.9379 H         1 UNK         0.0624 
@<TRIPOS>BOND
     1    1    2 1    
     2    1   72 1    
     3    1   73 1    
     4    1   74 1    
     5    2    3 2    
     6    2    4 am   BACKBONE|DICT|INTERRES
     7    4    5 1    
     8    4   75 1    
     9    5    6 1    
    10    5   35 1    
    11    5   76 1    
    12    6    7 1    
    13    6   77 1    
    14    6   78 1    
    15    7    8 1    
    16    8    9 1    
    17    8   79 1    
    18    8   80 1    
    19    9   10 ar   
    20    9   14 ar   
    21   10   11 ar   
    22   10   81 1    
    23   11   12 ar   
    24   11   71 1    
    25   12   13 ar   
    26   12   82 1    
    27   13   14 ar   
    28   13   15 1    
    29   14   83 1    
    30   15   16 1    
    31   15   84 1    
    32   15   85 1    
    33   16   17 1    
    34   17   18 1    
    35   17   86 1    
    36   17   87 1    
    37   18   19 1    
    38   18   37 1    
    39   18   88 1    
    40   19   20 am   BACKBONE|DICT|INTERRES
    41   19   89 1    
    42   20   21 2    
    43   20   22 1    
    44   22   23 1    
    45   22   24 1    
    46   22   90 1    
    47   23   91 1    
    48   23   92 1    
    49   23   93 1    
    50   24   25 am   BACKBONE|DICT|INTERRES
    51   24   94 1    
    52   25   26 2    
    53   25   27 1    
    54   27   28 1    
    55   27   29 1    
    56   27   95 1    
    57   28   96 1    
    58   28   97 1    
    59   28   98 1    
    60   29   30 am   BACKBONE|DICT|INTERRES
    61   29   99 1    
    62   30   31 2    
    63   30   32 1    
    64   32   33 1    
    65   32   34 1    
    66   32  100 1    
    67   33  101 1    
    68   33  102 1    
    69   33  103 1    
    70   34   35 am   BACKBONE|DICT|INTERRES
    71   34  104 1    
    72   35   36 2    
    73   37   38 2    
    74   37   39 am   BACKBONE|DICT|INTERRES
    75   39   40 1    
    76   39  105 1    
    77   40   41 1    
    78   40   42 1    
    79   40  106 1    
    80   41  107 1    
    81   41  108 1    
    82   41  109 1    
    83   42   43 2    
    84   42   44 am   BACKBONE|DICT|INTERRES
    85   44   45 1    
    86   44  110 1    
    87   45   46 1    
    88   45   47 1    
    89   45  111 1    
    90   46  112 1    
    91   46  113 1    
    92   46  114 1    
    93   47   48 2    
    94   47   49 am   BACKBONE|DICT|INTERRES
    95   49   50 1    
    96   49  115 1    
    97   50   51 1    
    98   50   52 1    
    99   50  116 1    
   100   51  117 1    
   101   51  118 1    
   102   51  119 1    
   103   52   53 2    
   104   52   54 am   BACKBONE|DICT|INTERRES
   105   54   55 1    
   106   54  120 1    
   107   55   56 1    
   108   55   57 1    
   109   55  121 1    
   110   56  122 1    
   111   56  123 1    
   112   56  124 1    
   113   57   58 2    
   114   57   59 am   BACKBONE|DICT|INTERRES
   115   59   60 1    
   116   59  125 1    
   117   60   61 1    
   118   60   62 1    
   119   60  126 1    
   120   61  127 1    
   121   61  128 1    
   122   61  129 1    
   123   62   63 2    
   124   62   64 am   BACKBONE|DICT|INTERRES
   125   64   65 1    
   126   64  130 1    
   127   65   66 1    
   128   65   69 1    
   129   65  131 1    
   130   66   67 am   BACKBONE|DICT|INTERRES
   131   66   68 2    
   132   67  132 1    
   133   67  133 1    
   134   69   70 1    
   135   69  134 1    
   136   69  135 1    
   137   70   71 1    
   138   71  136 1    
   139   71  137 1    
@<TRIPOS>SUBSTRUCTURE
     1 UNK         1 GROUP             0       ****    0 ROOT    
