@<TRIPOS>MOLECULE
3R137
137   139    1
SMALL
USER_CHARGES


@<TRIPOS>ATOM
      1 CA         27.5209   -0.2608    0.4168 C.3       0 UNK        -0.2020 
      2 C          27.4122   -1.6322    1.0743 C.2       0 UNK         0.4855 
      3 O          27.1661   -1.7073    2.2759 O.2       0 UNK        -0.5197 
      4 N          27.5735   -2.7430    0.3413 N.am      1 UNK        -0.4892 
      5 CA         27.8690   -2.8391   -1.0988 C.3       1 UNK         0.0835 
      6 C6         28.6175   -4.1544   -1.4367 C.3       12 UNK        -0.0855 
      7 S7         30.2137   -4.2770   -0.5585 S.3       12 UNK        -0.2931 
      8 C8         31.4175   -4.0592   -1.9148 C.3       12 UNK         0.0378 
      9 C9         31.2724   -2.7377   -2.6664 C.ar      12 UNK        -0.0802 
     10 C10        31.2980   -2.7290   -4.0644 C.ar      12 UNK        -0.0944 
     11 C11        31.2043   -1.5261   -4.7783 C.ar      12 UNK        -0.0787 
     12 C12        31.0593   -0.3301   -4.0696 C.ar      12 UNK        -0.0862 
     13 C13        30.9876   -0.3247   -2.6735 C.ar      12 UNK        -0.0733 
     14 C14        31.1311   -1.5286   -1.9785 C.ar      12 UNK        -0.0832 
     15 C15        30.7471    0.9691   -1.9012 C.3       12 UNK         0.0240 
     16 S16        29.3683    1.9984   -2.5316 S.3       12 UNK        -0.2522 
     17 C17        28.0451    0.8182   -2.9899 C.3       12 UNK        -0.0967 
     18 CA         27.7572    0.8672   -4.5119 C.3       5 UNK         0.0660 
     19 N          27.3071   -0.4151   -5.0587 N.am      5 UNK        -0.4015 
     20 C          27.3542   -0.7117   -6.3660 C.2       4 UNK         0.4946 
     21 O          27.8356    0.0317   -7.2228 O.2       4 UNK        -0.5353 
     22 CA         26.7217   -2.0409   -6.8004 C.3       4 UNK         0.0277 
     23 CB         27.6731   -3.2195   -6.5377 C.3       4 UNK        -0.1981 
     24 N          25.4291   -2.2742   -6.1512 N.am      4 UNK        -0.4209 
     25 C          24.3357   -1.5296   -6.3768 C.2       3 UNK         0.4942 
     26 O          24.3060   -0.5831   -7.1602 O.2       3 UNK        -0.5208 
     27 CA         23.0607   -1.8711   -5.5903 C.3       3 UNK         0.0250 
     28 CB         22.1958   -2.8653   -6.3812 C.3       3 UNK        -0.1990 
     29 N          23.3107   -2.4032   -4.2518 N.am      3 UNK        -0.4232 
     30 C          23.9410   -1.7648   -3.2559 C.2       2 UNK         0.4993 
     31 O          24.4082   -0.6262   -3.3560 O.2       2 UNK        -0.5286 
     32 CA         24.0820   -2.5390   -1.9261 C.3       2 UNK         0.0209 
     33 CB         23.5744   -3.9984   -1.9903 C.3       2 UNK        -0.1931 
     34 N          25.4362   -2.5405   -1.3581 N.am      2 UNK        -0.4546 
     35 C          26.6133   -2.6900   -1.9869 C.2       1 UNK         0.5154 
     36 O          26.7458   -2.7196   -3.2115 O.2       1 UNK        -0.5181 
     37 C          26.7969    2.0132   -4.8860 C.2       5 UNK         0.5014 
     38 O          27.2698    3.0968   -5.2292 O.2       5 UNK        -0.5248 
     39 N          25.4785    1.7561   -4.8591 N.am      6 UNK        -0.4434 
     40 CA         24.4453    2.7238   -5.2502 C.3       6 UNK         0.0363 
     41 CB         23.0515    2.1584   -4.9399 C.3       6 UNK        -0.1936 
     42 C          24.5399    3.1546   -6.7263 C.2       6 UNK         0.5081 
     43 O          24.3897    4.3406   -7.0207 O.2       6 UNK        -0.5248 
     44 N          24.8165    2.1964   -7.6216 N.am      7 UNK        -0.4718 
     45 CA         25.0680    2.4336   -9.0468 C.3       7 UNK         0.0273 
     46 CB         24.8599    1.1182   -9.8157 C.3       7 UNK        -0.1935 
     47 C          26.4727    2.9943   -9.3376 C.2       7 UNK         0.5018 
     48 O          26.6996    3.4695  -10.4510 O.2       7 UNK        -0.5186 
     49 N          27.3813    2.9103   -8.3536 N.am      8 UNK        -0.4240 
     50 CA         28.8056    3.2549   -8.4093 C.3       8 UNK         0.0235 
     51 CB         29.0006    4.7758   -8.5865 C.3       8 UNK        -0.2000 
     52 C          29.5571    2.4137   -9.4581 C.2       8 UNK         0.4941 
     53 O          30.2343    2.9652  -10.3293 O.2       8 UNK        -0.5273 
     54 N          29.3937    1.0866   -9.3668 N.am      9 UNK        -0.4262 
     55 CA         30.0289    0.0997  -10.2420 C.3       9 UNK         0.0264 
     56 CB         29.4082   -1.2801   -9.9670 C.3       9 UNK        -0.1955 
     57 C          31.5581    0.0535  -10.0681 C.2       9 UNK         0.5031 
     58 O          32.0758    0.3852   -8.9981 O.2       9 UNK        -0.5390 
     59 N          32.2586   -0.3919  -11.1181 N.am      10 UNK        -0.4204 
     60 CA         33.7173   -0.5271  -11.1631 C.3       10 UNK         0.0237 
     61 CB         34.1757   -0.4857  -12.6336 C.3       10 UNK        -0.1985 
     62 C          34.2003   -1.7922  -10.4258 C.2       10 UNK         0.4970 
     63 O          34.7527   -2.6986  -11.0524 O.2       10 UNK        -0.4914 
     64 N          33.9657   -1.8372   -9.1096 N.am      11 UNK        -0.4285 
     65 CA         34.3484   -2.9491   -8.2216 C.3       11 UNK         0.1007 
     66 C          35.8746   -3.0577   -7.9326 C.2       11 UNK         0.5703 
     67 N          36.6871   -2.0548   -8.2457 N.am      11 UNK        -0.7361 
     68 O          36.3309   -4.0775   -7.4208 O.2       11 UNK        -0.4986 
     69 C69        33.5385   -2.9450   -6.8984 C.3       12 UNK        -0.0947 
     70 S70        31.7358   -2.9781   -7.1749 S.3       12 UNK        -0.2240 
     71 C71        31.2202   -1.4567   -6.3065 C.3       12 UNK         0.0194 
     72 H72        27.3946    0.5282    1.1580 H         1 UNK         0.0906 
     73 H73        28.4982   -0.1237   -0.0416 H         1 UNK         0.0906 
     74 H74        26.7476   -0.1283   -0.3381 H         1 UNK         0.0906 
     75 H75        27.5156   -3.6333    0.8164 H         1 UNK         0.3140 
     76 H76        28.5283   -2.0193   -1.3745 H         1 UNK         0.1085 
     77 H77        28.8004   -4.2364   -2.5105 H         1 UNK         0.0836 
     78 H78        28.0102   -5.0214   -1.1700 H         1 UNK         0.0836 
     79 H79        31.3215   -4.9045   -2.5982 H         1 UNK         0.0731 
     80 H80        32.4248   -4.1137   -1.5001 H         1 UNK         0.0731 
     81 H81        31.3984   -3.6681   -4.5886 H         1 UNK         0.1312 
     82 H82        30.9746    0.6030   -4.6093 H         1 UNK         0.1406 
     83 H83        31.1083   -1.5324   -0.8970 H         1 UNK         0.1631 
     84 H84        31.6611    1.5637   -1.9255 H         1 UNK         0.0717 
     85 H85        30.5561    0.7560   -0.8489 H         1 UNK         0.0717 
     86 H86        28.3506   -0.1845   -2.7014 H         1 UNK         0.0934 
     87 H87        27.1480    1.0327   -2.4062 H         1 UNK         0.0934 
     88 H88        28.6994    1.0861   -5.0187 H         1 UNK         0.0739 
     89 H89        26.9077   -1.0926   -4.4159 H         1 UNK         0.3093 
     90 H90        26.5464   -1.9844   -7.8771 H         1 UNK         0.0818 
     91 H91        27.9341   -3.3111   -5.4831 H         1 UNK         0.0819 
     92 H92        27.2343   -4.1641   -6.8587 H         1 UNK         0.0819 
     93 H93        28.6047   -3.0950   -7.0901 H         1 UNK         0.0819 
     94 H94        25.3907   -2.9994   -5.4486 H         1 UNK         0.3041 
     95 H95        22.4890   -0.9502   -5.4709 H         1 UNK         0.0784 
     96 H96        21.9720   -2.4801   -7.3773 H         1 UNK         0.0793 
     97 H97        22.6964   -3.8261   -6.5087 H         1 UNK         0.0793 
     98 H98        21.2418   -3.0454   -5.8851 H         1 UNK         0.0793 
     99 H99        22.9717   -3.3370   -4.0709 H         1 UNK         0.3024 
    100 H100       23.4526   -2.0020   -1.2145 H         1 UNK         0.1171 
    101 H101       24.1517   -4.5995   -2.6945 H         1 UNK         0.0786 
    102 H102       23.6503   -4.4800   -1.0151 H         1 UNK         0.0786 
    103 H103       22.5234   -4.0501   -2.2783 H         1 UNK         0.0786 
    104 H104       25.4753   -2.5022   -0.3491 H         1 UNK         0.2977 
    105 H105       25.1575    0.8528   -4.5209 H         1 UNK         0.3127 
    106 H106       24.5903    3.6159   -4.6370 H         1 UNK         0.0770 
    107 H107       22.8168    1.3041   -5.5731 H         1 UNK         0.0814 
    108 H108       22.2811    2.9105   -5.1145 H         1 UNK         0.0814 
    109 H109       22.9685    1.8427   -3.8997 H         1 UNK         0.0814 
    110 H110       24.8424    1.2256   -7.3154 H         1 UNK         0.2983 
    111 H111       24.3424    3.1638   -9.4120 H         1 UNK         0.0947 
    112 H112       24.9962    1.2636  -10.8881 H         1 UNK         0.0806 
    113 H113       23.8536    0.7263   -9.6671 H         1 UNK         0.0806 
    114 H114       25.5682    0.3519   -9.4968 H         1 UNK         0.0806 
    115 H115       27.0759    2.4959   -7.4826 H         1 UNK         0.3000 
    116 H116       29.2237    2.9803   -7.4394 H         1 UNK         0.0850 
    117 H117       28.6335    5.1244   -9.5522 H         1 UNK         0.0810 
    118 H118       28.4800    5.3333   -7.8078 H         1 UNK         0.0810 
    119 H119       30.0565    5.0417   -8.5256 H         1 UNK         0.0810 
    120 H120       28.8275    0.7192   -8.6027 H         1 UNK         0.3040 
    121 H121       29.8085    0.3828  -11.2734 H         1 UNK         0.0766 
    122 H122       29.8295   -2.0429  -10.6229 H         1 UNK         0.0812 
    123 H123       28.3305   -1.2698  -10.1314 H         1 UNK         0.0812 
    124 H124       29.5837   -1.6013   -8.9407 H         1 UNK         0.0812 
    125 H125       31.7575   -0.6852  -11.9447 H         1 UNK         0.3205 
    126 H126       34.1646    0.3311  -10.6564 H         1 UNK         0.0754 
    127 H127       35.2620   -0.5556  -12.7065 H         1 UNK         0.0769 
    128 H128       33.8813    0.4475  -13.1144 H         1 UNK         0.0769 
    129 H129       33.7560   -1.3089  -13.2134 H         1 UNK         0.0769 
    130 H130       33.4521   -1.0693   -8.6899 H         1 UNK         0.2981 
    131 H131       34.0892   -3.8708   -8.7462 H         1 UNK         0.0541 
    132 H132       37.6734   -2.1411   -8.0572 H         1 UNK         0.3459 
    133 H133       36.3237   -1.2132   -8.6624 H         1 UNK         0.3459 
    134 H134       33.8040   -2.0755   -6.2944 H         1 UNK         0.0612 
    135 H135       33.7877   -3.8192   -6.2943 H         1 UNK         0.0612 
    136 H136       31.8705   -0.6398   -6.6195 H         1 UNK         0.0624 
    137 H137       30.2201   -1.1945   -6.6465 H         1 UNK         0.0624 
@<TRIPOS>BOND
     1    1    2 1    
     2    1   72 1    
     3    1   73 1    
     4    1   74 1    
     5    2    3 2    
     6    2    4 am   BACKBONE|DICT|INTERRES
     7    4    5 1    
     8    4   75 1    
     9    5    6 1    
    10    5   35 1    
    11    5   76 1    
    12    6    7 1    
    13    6   77 1    
    14    6   78 1    
    15    7    8 1    
    16    8    9 1    
    17    8   79 1    
    18    8   80 1    
    19    9   10 ar   
    20    9   14 ar   
    21   10   11 ar   
    22   10   81 1    
    23   11   12 ar   
    24   11   71 1    
    25   12   13 ar   
    26   12   82 1    
    27   13   14 ar   
    28   13   15 1    
    29   14   83 1    
    30   15   16 1    
    31   15   84 1    
    32   15   85 1    
    33   16   17 1    
    34   17   18 1    
    35   17   86 1    
    36   17   87 1    
    37   18   19 1    
    38   18   37 1    
    39   18   88 1    
    40   19   20 am   BACKBONE|DICT|INTERRES
    41   19   89 1    
    42   20   21 2    
    43   20   22 1    
    44   22   23 1    
    45   22   24 1    
    46   22   90 1    
    47   23   91 1    
    48   23   92 1    
    49   23   93 1    
    50   24   25 am   BACKBONE|DICT|INTERRES
    51   24   94 1    
    52   25   26 2    
    53   25   27 1    
    54   27   28 1    
    55   27   29 1    
    56   27   95 1    
    57   28   96 1    
    58   28   97 1    
    59   28   98 1    
    60   29   30 am   BACKBONE|DICT|INTERRES
    61   29   99 1    
    62   30   31 2    
    63   30   32 1    
    64   32   33 1    
    65   32   34 1    
    66   32  100 1    
    67   33  101 1    
    68   33  102 1    
    69   33  103 1    
    70   34   35 am   BACKBONE|DICT|INTERRES
    71   34  104 1    
    72   35   36 2    
    73   37   38 2    
    74   37   39 am   BACKBONE|DICT|INTERRES
    75   39   40 1    
    76   39  105 1    
    77   40   41 1    
    78   40   42 1    
    79   40  106 1    
    80   41  107 1    
    81   41  108 1    
    82   41  109 1    
    83   42   43 2    
    84   42   44 am   BACKBONE|DICT|INTERRES
    85   44   45 1    
    86   44  110 1    
    87   45   46 1    
    88   45   47 1    
    89   45  111 1    
    90   46  112 1    
    91   46  113 1    
    92   46  114 1    
    93   47   48 2    
    94   47   49 am   BACKBONE|DICT|INTERRES
    95   49   50 1    
    96   49  115 1    
    97   50   51 1    
    98   50   52 1    
    99   50  116 1    
   100   51  117 1    
   101   51  118 1    
   102   51  119 1    
   103   52   53 2    
   104   52   54 am   BACKBONE|DICT|INTERRES
   105   54   55 1    
   106   54  120 1    
   107   55   56 1    
   108   55   57 1    
   109   55  121 1    
   110   56  122 1    
   111   56  123 1    
   112   56  124 1    
   113   57   58 2    
   114   57   59 am   BACKBONE|DICT|INTERRES
   115   59   60 1    
   116   59  125 1    
   117   60   61 1    
   118   60   62 1    
   119   60  126 1    
   120   61  127 1    
   121   61  128 1    
   122   61  129 1    
   123   62   63 2    
   124   62   64 am   BACKBONE|DICT|INTERRES
   125   64   65 1    
   126   64  130 1    
   127   65   66 1    
   128   65   69 1    
   129   65  131 1    
   130   66   67 am   BACKBONE|DICT|INTERRES
   131   66   68 2    
   132   67  132 1    
   133   67  133 1    
   134   69   70 1    
   135   69  134 1    
   136   69  135 1    
   137   70   71 1    
   138   71  136 1    
   139   71  137 1    
@<TRIPOS>SUBSTRUCTURE
     1 UNK         1 GROUP             0       ****    0 ROOT    
