@<TRIPOS>MOLECULE
3R137
137   139    1
SMALL
USER_CHARGES


@<TRIPOS>ATOM
      1 CA         21.8336   -3.3180   -4.5962 C.3       0 UNK        -0.2020 
      2 C          22.8409   -4.3147   -4.0447 C.2       0 UNK         0.4855 
      3 O          22.4414   -5.3830   -3.5807 O.2       0 UNK        -0.5197 
      4 N          24.1368   -3.9822   -4.0983 N.am      1 UNK        -0.4892 
      5 CA         25.2287   -4.8313   -3.6027 C.3       1 UNK         0.0835 
      6 C6         26.4395   -4.8719   -4.5688 C.3       12 UNK        -0.0855 
      7 S7         27.1377   -3.2455   -5.0157 S.3       12 UNK        -0.2931 
      8 C8         28.5616   -3.1398   -3.8860 C.3       12 UNK         0.0378 
      9 C9         29.5113   -2.0475   -4.3440 C.ar      12 UNK        -0.0802 
     10 C10        30.5916   -2.3602   -5.1731 C.ar      12 UNK        -0.0944 
     11 C11        31.4260   -1.3496   -5.6566 C.ar      12 UNK        -0.0787 
     12 C12        31.1655   -0.0193   -5.3152 C.ar      12 UNK        -0.0862 
     13 C13        30.0981    0.3069   -4.4724 C.ar      12 UNK        -0.0733 
     14 C14        29.2911   -0.7198   -3.9684 C.ar      12 UNK        -0.0832 
     15 C15        29.8464    1.7713   -4.1171 C.3       12 UNK         0.0240 
     16 S16        28.0832    2.2385   -4.0037 S.3       12 UNK        -0.2522 
     17 C17        27.4406    1.7765   -5.6499 C.3       12 UNK        -0.0967 
     18 CA         26.3946    0.6330   -5.5614 C.3       5 UNK         0.0660 
     19 N          25.2334    1.0182   -4.7567 N.am      5 UNK        -0.4015 
     20 C          24.3947    0.1796   -4.1384 C.2       4 UNK         0.4946 
     21 O          24.4742   -1.0532   -4.1948 O.2       4 UNK        -0.5353 
     22 CA         23.3118    0.8336   -3.2667 C.3       4 UNK         0.0277 
     23 CB         21.9522    0.1322   -3.4161 C.3       4 UNK        -0.1981 
     24 N          23.7377    0.7569   -1.8745 N.am      4 UNK        -0.4209 
     25 C          24.6344    1.5713   -1.3009 C.2       3 UNK         0.4942 
     26 O          25.0252    2.6248   -1.8045 O.2       3 UNK        -0.5208 
     27 CA         25.2160    1.1100    0.0497 C.3       3 UNK         0.0250 
     28 CB         24.4382    1.7368    1.2181 C.3       3 UNK        -0.1990 
     29 N          25.2230   -0.3518    0.1939 N.am      3 UNK        -0.4232 
     30 C          25.9556   -1.1867   -0.5590 C.2       2 UNK         0.4993 
     31 O          26.7942   -0.8072   -1.3764 O.2       2 UNK        -0.5286 
     32 CA         25.6885   -2.6907   -0.4199 C.3       2 UNK         0.0209 
     33 CB         24.5608   -3.0616    0.5696 C.3       2 UNK        -0.1931 
     34 N          25.3770   -3.2151   -1.7482 N.am      2 UNK        -0.4546 
     35 C          25.6415   -4.4593   -2.1648 C.2       1 UNK         0.5154 
     36 O          26.1781   -5.3124   -1.4555 O.2       1 UNK        -0.5181 
     37 C          25.9619    0.1252   -6.9499 C.2       5 UNK         0.5014 
     38 O          26.2241    0.7809   -7.9596 O.2       5 UNK        -0.5248 
     39 N          25.3163   -1.0479   -6.9756 N.am      6 UNK        -0.4434 
     40 CA         24.8461   -1.7546   -8.1734 C.3       6 UNK         0.0363 
     41 CB         24.0803   -3.0169   -7.7468 C.3       6 UNK        -0.1936 
     42 C          25.9595   -2.1152   -9.1752 C.2       6 UNK         0.5081 
     43 O          25.6756   -2.2643  -10.3638 O.2       6 UNK        -0.5248 
     44 N          27.2043   -2.2207   -8.6897 N.am      7 UNK        -0.4718 
     45 CA         28.4116   -2.3947   -9.5004 C.3       7 UNK         0.0273 
     46 CB         29.5790   -2.7591   -8.5722 C.3       7 UNK        -0.1935 
     47 C          28.7788   -1.1582  -10.3454 C.2       7 UNK         0.5018 
     48 O          29.5458   -1.3036  -11.2979 O.2       7 UNK        -0.5186 
     49 N          28.2568    0.0249   -9.9801 N.am      8 UNK        -0.4240 
     50 CA         28.4051    1.3485  -10.6064 C.3       8 UNK         0.0235 
     51 CB         27.8318    1.3524  -12.0369 C.3       8 UNK        -0.2000 
     52 C          29.8237    1.9513  -10.5818 C.2       8 UNK         0.4941 
     53 O          29.9538    3.1591  -10.3758 O.2       8 UNK        -0.5273 
     54 N          30.8515    1.1270  -10.8086 N.am      9 UNK        -0.4262 
     55 CA         32.2657    1.4995  -10.8062 C.3       9 UNK         0.0264 
     56 CB         33.0822    0.3273  -11.3757 C.3       9 UNK        -0.1955 
     57 C          32.7769    1.8635   -9.4028 C.2       9 UNK         0.5031 
     58 O          32.2833    1.3338   -8.4051 O.2       9 UNK        -0.5390 
     59 N          33.8073    2.7151   -9.3557 N.am      10 UNK        -0.4204 
     60 CA         34.5460    3.0578   -8.1410 C.3       10 UNK         0.0237 
     61 CB         35.1001    4.4888   -8.2762 C.3       10 UNK        -0.1985 
     62 C          35.6532    2.0159   -7.9072 C.2       10 UNK         0.4970 
     63 O          36.8170    2.2758   -8.2183 O.2       10 UNK        -0.4914 
     64 N          35.2610    0.8379   -7.4071 N.am      11 UNK        -0.4285 
     65 CA         36.1577   -0.2963   -7.1243 C.3       11 UNK         0.1007 
     66 C          37.1509   -0.0919   -5.9399 C.2       11 UNK         0.5703 
     67 N          36.9890    0.9242   -5.1001 N.am      11 UNK        -0.7361 
     68 O          38.0948   -0.8647   -5.7910 O.2       11 UNK        -0.4986 
     69 C69        35.3761   -1.6335   -7.0104 C.3       12 UNK        -0.0947 
     70 S70        34.1614   -1.6581   -5.6468 S.3       12 UNK        -0.2240 
     71 C71        32.5954   -1.6865   -6.5669 C.3       12 UNK         0.0194 
     72 H72        22.3122   -2.4084   -4.9550 H         1 UNK         0.0906 
     73 H73        21.2870   -3.7614   -5.4280 H         1 UNK         0.0906 
     74 H74        21.1141   -3.0453   -3.8250 H         1 UNK         0.0906 
     75 H75        24.4049   -3.0540   -4.4117 H         1 UNK         0.3140 
     76 H76        24.8687   -5.8606   -3.5355 H         1 UNK         0.1085 
     77 H77        26.1267   -5.3477   -5.4994 H         1 UNK         0.0836 
     78 H78        27.2252   -5.5183   -4.1730 H         1 UNK         0.0836 
     79 H79        29.0846   -4.0966   -3.8512 H         1 UNK         0.0731 
     80 H80        28.2123   -2.9360   -2.8726 H         1 UNK         0.0731 
     81 H81        30.7704   -3.3879   -5.4585 H         1 UNK         0.1312 
     82 H82        31.8017    0.7624   -5.7083 H         1 UNK         0.1406 
     83 H83        28.4636   -0.4842   -3.3128 H         1 UNK         0.1631 
     84 H84        30.3220    2.4254   -4.8498 H         1 UNK         0.0717 
     85 H85        30.3237    1.9821   -3.1595 H         1 UNK         0.0717 
     86 H86        27.0045    2.6644   -6.1115 H         1 UNK         0.0934 
     87 H87        28.2750    1.4851   -6.2913 H         1 UNK         0.0934 
     88 H88        26.8714   -0.2127   -5.0659 H         1 UNK         0.0739 
     89 H89        25.1136    2.0105   -4.6128 H         1 UNK         0.3093 
     90 H90        23.1905    1.8787   -3.5605 H         1 UNK         0.0818 
     91 H91        21.9797   -0.8871   -3.0319 H         1 UNK         0.0819 
     92 H92        21.1723    0.6682   -2.8751 H         1 UNK         0.0819 
     93 H93        21.6474    0.0850   -4.4624 H         1 UNK         0.0819 
     94 H94        23.4889   -0.0866   -1.3807 H         1 UNK         0.3041 
     95 H95        26.2501    1.4583    0.0967 H         1 UNK         0.0784 
     96 H96        24.4394    2.8255    1.1465 H         1 UNK         0.0793 
     97 H97        23.3967    1.4127    1.2326 H         1 UNK         0.0793 
     98 H98        24.8855    1.4770    2.1778 H         1 UNK         0.0793 
     99 H99        24.5724   -0.7471    0.8578 H         1 UNK         0.3024 
    100 H100       26.6226   -3.1338   -0.0665 H         1 UNK         0.1171 
    101 H101       24.4504   -4.1436    0.6461 H         1 UNK         0.0786 
    102 H102       24.7763   -2.6991    1.5756 H         1 UNK         0.0786 
    103 H103       23.5957   -2.6579    0.2608 H         1 UNK         0.0786 
    104 H104       25.0158   -2.5468   -2.4186 H         1 UNK         0.2977 
    105 H105       25.1203   -1.4783   -6.0781 H         1 UNK         0.3127 
    106 H106       24.1523   -1.0904   -8.6926 H         1 UNK         0.0770 
    107 H107       24.7029   -3.6867   -7.1522 H         1 UNK         0.0814 
    108 H108       23.7352   -3.5785   -8.6161 H         1 UNK         0.0814 
    109 H109       23.1981   -2.7632   -7.1614 H         1 UNK         0.0814 
    110 H110       27.3341   -2.1229   -7.6922 H         1 UNK         0.2983 
    111 H111       28.2421   -3.2247  -10.1897 H         1 UNK         0.0947 
    112 H112       30.4856   -2.9651   -9.1428 H         1 UNK         0.0806 
    113 H113       29.3592   -3.6466   -7.9782 H         1 UNK         0.0806 
    114 H114       29.8040   -1.9413   -7.8879 H         1 UNK         0.0806 
    115 H115       27.6368    0.0269   -9.1757 H         1 UNK         0.3000 
    116 H116       27.7826    2.0152  -10.0072 H         1 UNK         0.0850 
    117 H117       27.8491    2.3576  -12.4601 H         1 UNK         0.0810 
    118 H118       26.7958    1.0135  -12.0483 H         1 UNK         0.0810 
    119 H119       28.4027    0.7093  -12.7073 H         1 UNK         0.0810 
    120 H120       30.6272    0.1503  -10.9821 H         1 UNK         0.3040 
    121 H121       32.3861    2.3662  -11.4597 H         1 UNK         0.0766 
    122 H122       34.1442    0.5716  -11.4240 H         1 UNK         0.0812 
    123 H123       32.7628    0.0752  -12.3871 H         1 UNK         0.0812 
    124 H124       32.9815   -0.5679  -10.7601 H         1 UNK         0.0812 
    125 H125       34.1823    3.0726  -10.2231 H         1 UNK         0.3205 
    126 H126       33.8748    3.0415   -7.2792 H         1 UNK         0.0754 
    127 H127       34.2943    5.2149   -8.3868 H         1 UNK         0.0769 
    128 H128       35.7627    4.5919   -9.1366 H         1 UNK         0.0769 
    129 H129       35.6698    4.7711   -7.3897 H         1 UNK         0.0769 
    130 H130       34.2806    0.6947   -7.2066 H         1 UNK         0.2981 
    131 H131       36.7978   -0.3975   -8.0029 H         1 UNK         0.0541 
    132 H132       37.6420    1.0473   -4.3426 H         1 UNK         0.3459 
    133 H133       36.2148    1.5584   -5.2086 H         1 UNK         0.3459 
    134 H134       36.0651   -2.4678   -6.8670 H         1 UNK         0.0612 
    135 H135       34.8674   -1.8400   -7.9533 H         1 UNK         0.0612 
    136 H136       32.6345   -0.9750   -7.3902 H         1 UNK         0.0624 
    137 H137       32.4639   -2.6707   -7.0191 H         1 UNK         0.0624 
@<TRIPOS>BOND
     1    1    2 1    
     2    1   72 1    
     3    1   73 1    
     4    1   74 1    
     5    2    3 2    
     6    2    4 am   BACKBONE|DICT|INTERRES
     7    4    5 1    
     8    4   75 1    
     9    5    6 1    
    10    5   35 1    
    11    5   76 1    
    12    6    7 1    
    13    6   77 1    
    14    6   78 1    
    15    7    8 1    
    16    8    9 1    
    17    8   79 1    
    18    8   80 1    
    19    9   10 ar   
    20    9   14 ar   
    21   10   11 ar   
    22   10   81 1    
    23   11   12 ar   
    24   11   71 1    
    25   12   13 ar   
    26   12   82 1    
    27   13   14 ar   
    28   13   15 1    
    29   14   83 1    
    30   15   16 1    
    31   15   84 1    
    32   15   85 1    
    33   16   17 1    
    34   17   18 1    
    35   17   86 1    
    36   17   87 1    
    37   18   19 1    
    38   18   37 1    
    39   18   88 1    
    40   19   20 am   BACKBONE|DICT|INTERRES
    41   19   89 1    
    42   20   21 2    
    43   20   22 1    
    44   22   23 1    
    45   22   24 1    
    46   22   90 1    
    47   23   91 1    
    48   23   92 1    
    49   23   93 1    
    50   24   25 am   BACKBONE|DICT|INTERRES
    51   24   94 1    
    52   25   26 2    
    53   25   27 1    
    54   27   28 1    
    55   27   29 1    
    56   27   95 1    
    57   28   96 1    
    58   28   97 1    
    59   28   98 1    
    60   29   30 am   BACKBONE|DICT|INTERRES
    61   29   99 1    
    62   30   31 2    
    63   30   32 1    
    64   32   33 1    
    65   32   34 1    
    66   32  100 1    
    67   33  101 1    
    68   33  102 1    
    69   33  103 1    
    70   34   35 am   BACKBONE|DICT|INTERRES
    71   34  104 1    
    72   35   36 2    
    73   37   38 2    
    74   37   39 am   BACKBONE|DICT|INTERRES
    75   39   40 1    
    76   39  105 1    
    77   40   41 1    
    78   40   42 1    
    79   40  106 1    
    80   41  107 1    
    81   41  108 1    
    82   41  109 1    
    83   42   43 2    
    84   42   44 am   BACKBONE|DICT|INTERRES
    85   44   45 1    
    86   44  110 1    
    87   45   46 1    
    88   45   47 1    
    89   45  111 1    
    90   46  112 1    
    91   46  113 1    
    92   46  114 1    
    93   47   48 2    
    94   47   49 am   BACKBONE|DICT|INTERRES
    95   49   50 1    
    96   49  115 1    
    97   50   51 1    
    98   50   52 1    
    99   50  116 1    
   100   51  117 1    
   101   51  118 1    
   102   51  119 1    
   103   52   53 2    
   104   52   54 am   BACKBONE|DICT|INTERRES
   105   54   55 1    
   106   54  120 1    
   107   55   56 1    
   108   55   57 1    
   109   55  121 1    
   110   56  122 1    
   111   56  123 1    
   112   56  124 1    
   113   57   58 2    
   114   57   59 am   BACKBONE|DICT|INTERRES
   115   59   60 1    
   116   59  125 1    
   117   60   61 1    
   118   60   62 1    
   119   60  126 1    
   120   61  127 1    
   121   61  128 1    
   122   61  129 1    
   123   62   63 2    
   124   62   64 am   BACKBONE|DICT|INTERRES
   125   64   65 1    
   126   64  130 1    
   127   65   66 1    
   128   65   69 1    
   129   65  131 1    
   130   66   67 am   BACKBONE|DICT|INTERRES
   131   66   68 2    
   132   67  132 1    
   133   67  133 1    
   134   69   70 1    
   135   69  134 1    
   136   69  135 1    
   137   70   71 1    
   138   71  136 1    
   139   71  137 1    
@<TRIPOS>SUBSTRUCTURE
     1 UNK         1 GROUP             0       ****    0 ROOT    
