@<TRIPOS>MOLECULE
3R137
137   139    1
SMALL
USER_CHARGES


@<TRIPOS>ATOM
      1 CA         24.0182   -6.1258   -2.7280 C.3       0 UNK        -0.2020 
      2 C          24.4668   -5.0021   -1.8066 C.2       0 UNK         0.4855 
      3 O          23.6846   -4.0955   -1.5174 O.2       0 UNK        -0.5197 
      4 N          25.7237   -5.0590   -1.3490 N.am      1 UNK        -0.4892 
      5 CA         26.3958   -4.0832   -0.4824 C.3       1 UNK         0.0835 
      6 C6         27.8311   -4.5360   -0.0787 C.3       12 UNK        -0.0855 
      7 S7         28.7391   -5.5051   -1.3435 S.3       12 UNK        -0.2931 
      8 C8         30.4522   -4.9250   -1.1385 C.3       12 UNK         0.0378 
      9 C9         30.7535   -3.7553   -2.0607 C.ar      12 UNK        -0.0802 
     10 C10        31.1597   -3.9897   -3.3771 C.ar      12 UNK        -0.0944 
     11 C11        31.4178   -2.9217   -4.2410 C.ar      12 UNK        -0.0787 
     12 C12        31.2763   -1.6097   -3.7783 C.ar      12 UNK        -0.0862 
     13 C13        30.8808   -1.3640   -2.4600 C.ar      12 UNK        -0.0733 
     14 C14        30.6257   -2.4415   -1.6054 C.ar      12 UNK        -0.0832 
     15 C15        30.7318    0.0586   -1.9431 C.3       12 UNK         0.0240 
     16 S16        29.0059    0.4105   -1.4897 S.3       12 UNK        -0.2522 
     17 C17        28.4204    1.4747   -2.8470 C.3       12 UNK        -0.0967 
     18 CA         28.4805    0.8736   -4.2771 C.3       5 UNK         0.0660 
     19 N          27.9148   -0.4794   -4.3847 N.am      5 UNK        -0.4015 
     20 C          27.9760   -1.2352   -5.4945 C.2       4 UNK         0.4946 
     21 O          28.6023   -0.9122   -6.5029 O.2       4 UNK        -0.5353 
     22 CA         27.1600   -2.5371   -5.5217 C.3       4 UNK         0.0277 
     23 CB         27.9696   -3.7193   -4.9678 C.3       4 UNK        -0.1981 
     24 N          25.9050   -2.3931   -4.7837 N.am      4 UNK        -0.4209 
     25 C          24.8049   -1.8085   -5.2840 C.2       3 UNK         0.4942 
     26 O          24.7045   -1.4308   -6.4509 O.2       3 UNK        -0.5208 
     27 CA         23.6212   -1.5747   -4.3266 C.3       3 UNK         0.0250 
     28 CB         22.5849   -2.7014   -4.4550 C.3       3 UNK        -0.1990 
     29 N          24.0311   -1.4312   -2.9270 N.am      3 UNK        -0.4232 
     30 C          24.7333   -0.3858   -2.4631 C.2       2 UNK         0.4993 
     31 O          25.0501    0.5786   -3.1584 O.2       2 UNK        -0.5286 
     32 CA         25.2203   -0.4440   -1.0043 C.3       2 UNK         0.0209 
     33 CB         24.2033    0.2332   -0.0727 C.3       2 UNK        -0.1931 
     34 N          25.4996   -1.8002   -0.5201 N.am      2 UNK        -0.4546 
     35 C          26.3557   -2.6640   -1.0863 C.2       1 UNK         0.5154 
     36 O          27.0282   -2.3960   -2.0820 O.2       1 UNK        -0.5181 
     37 C          27.8037    1.8545   -5.2591 C.2       5 UNK         0.5014 
     38 O          28.4856    2.6720   -5.8761 O.2       5 UNK        -0.5248 
     39 N          26.4721    1.7567   -5.3742 N.am      6 UNK        -0.4434 
     40 CA         25.6276    2.5962   -6.2256 C.3       6 UNK         0.0363 
     41 CB         24.1768    2.4976   -5.7244 C.3       6 UNK        -0.1936 
     42 C          25.6960    2.2657   -7.7290 C.2       6 UNK         0.5081 
     43 O          25.0931    2.9954   -8.5186 O.2       6 UNK        -0.5248 
     44 N          26.3932    1.1897   -8.1217 N.am      7 UNK        -0.4718 
     45 CA         26.5051    0.7079   -9.5032 C.3       7 UNK         0.0273 
     46 CB         26.9287   -0.7723   -9.4819 C.3       7 UNK        -0.1935 
     47 C          27.4399    1.5782  -10.3699 C.2       7 UNK         0.5018 
     48 O          28.4509    1.0845  -10.8748 O.2       7 UNK        -0.5186 
     49 N          27.0853    2.8618  -10.5240 N.am      8 UNK        -0.4240 
     50 CA         27.7913    3.9068  -11.2732 C.3       8 UNK         0.0235 
     51 CB         27.7017    3.6413  -12.7940 C.3       8 UNK        -0.2000 
     52 C          29.2271    4.0984  -10.7498 C.2       8 UNK         0.4941 
     53 O          29.3990    4.6538   -9.6643 O.2       8 UNK        -0.5273 
     54 N          30.2224    3.6225  -11.5097 N.am      9 UNK        -0.4262 
     55 CA         31.6375    3.6086  -11.1292 C.3       9 UNK         0.0264 
     56 CB         32.4895    3.4027  -12.3931 C.3       9 UNK        -0.1955 
     57 C          31.9845    2.5448  -10.0674 C.2       9 UNK         0.5031 
     58 O          33.0689    2.6245   -9.4866 O.2       9 UNK        -0.5390 
     59 N          31.0822    1.5767   -9.8402 N.am      10 UNK        -0.4204 
     60 CA         31.2138    0.4284   -8.9391 C.3       10 UNK         0.0237 
     61 CB         31.3277    0.8913   -7.4676 C.3       10 UNK        -0.1985 
     62 C          32.3359   -0.5324   -9.3812 C.2       10 UNK         0.4970 
     63 O          32.6774   -0.5831  -10.5653 O.2       10 UNK        -0.4914 
     64 N          32.8642   -1.3016   -8.4259 N.am      11 UNK        -0.4285 
     65 CA         33.9634   -2.2606   -8.6045 C.3       11 UNK         0.1007 
     66 C          35.3878   -1.6313   -8.5472 C.2       11 UNK         0.5703 
     67 N          35.5357   -0.3254   -8.3538 N.am      11 UNK        -0.7361 
     68 O          36.3803   -2.3393   -8.7021 O.2       11 UNK        -0.4986 
     69 C69        33.7977   -3.4797   -7.6566 C.3       12 UNK        -0.0947 
     70 S70        33.6273   -3.0363   -5.8922 S.3       12 UNK        -0.2240 
     71 C71        31.8271   -3.1890   -5.6791 C.3       12 UNK         0.0194 
     72 H72        24.0659   -5.8047   -3.7677 H         1 UNK         0.0906 
     73 H73        24.6434   -7.0114   -2.6160 H         1 UNK         0.0906 
     74 H74        22.9905   -6.4105   -2.5042 H         1 UNK         0.0906 
     75 H75        26.3298   -5.8063   -1.6606 H         1 UNK         0.3140 
     76 H76        25.8119   -4.0488    0.4399 H         1 UNK         0.1085 
     77 H77        27.7602   -5.1755    0.8026 H         1 UNK         0.0836 
     78 H78        28.4335   -3.6834    0.2403 H         1 UNK         0.0836 
     79 H79        31.1287   -5.7502   -1.3664 H         1 UNK         0.0731 
     80 H80        30.6415   -4.6609   -0.0969 H         1 UNK         0.0731 
     81 H81        31.2587   -5.0061   -3.7332 H         1 UNK         0.1312 
     82 H82        31.4747   -0.7831   -4.4456 H         1 UNK         0.1406 
     83 H83        30.3102   -2.2519   -0.5887 H         1 UNK         0.1631 
     84 H84        31.0911    0.7886   -2.6697 H         1 UNK         0.0717 
     85 H85        31.3568    0.1782   -1.0571 H         1 UNK         0.0717 
     86 H86        27.3969    1.7583   -2.5946 H         1 UNK         0.0934 
     87 H87        28.9960    2.4019   -2.8110 H         1 UNK         0.0934 
     88 H88        29.5289    0.8018   -4.5712 H         1 UNK         0.0739 
     89 H89        27.4588   -0.8534   -3.5606 H         1 UNK         0.3093 
     90 H90        26.9263   -2.7592   -6.5654 H         1 UNK         0.0818 
     91 H91        28.8471   -3.9069   -5.5868 H         1 UNK         0.0819 
     92 H92        28.3258   -3.5342   -3.9546 H         1 UNK         0.0819 
     93 H93        27.3808   -4.6363   -4.9529 H         1 UNK         0.0819 
     94 H94        25.9448   -2.6145   -3.7948 H         1 UNK         0.3041 
     95 H95        23.1389   -0.6423   -4.6275 H         1 UNK         0.0784 
     96 H96        22.2109   -2.7702   -5.4775 H         1 UNK         0.0793 
     97 H97        23.0082   -3.6715   -4.1992 H         1 UNK         0.0793 
     98 H98        21.7259   -2.5281   -3.8065 H         1 UNK         0.0793 
     99 H99        23.8336   -2.2099   -2.3047 H         1 UNK         0.3024 
    100 H100       26.1533    0.1189   -0.9554 H         1 UNK         0.1171 
    101 H101       24.5793    0.2944    0.9488 H         1 UNK         0.0786 
    102 H102       23.9940    1.2529   -0.3999 H         1 UNK         0.0786 
    103 H103       23.2542   -0.3040   -0.0517 H         1 UNK         0.0786 
    104 H104       24.9447   -2.1163    0.2625 H         1 UNK         0.2977 
    105 H105       25.9832    1.1159   -4.7530 H         1 UNK         0.3127 
    106 H106       25.9560    3.6315   -6.1126 H         1 UNK         0.0770 
    107 H107       23.7899    1.4823   -5.8189 H         1 UNK         0.0814 
    108 H108       23.5167    3.1532   -6.2939 H         1 UNK         0.0814 
    109 H109       24.0966    2.7908   -4.6775 H         1 UNK         0.0814 
    110 H110       26.8888    0.6567   -7.4193 H         1 UNK         0.2983 
    111 H111       25.5148    0.7554   -9.9615 H         1 UNK         0.0947 
    112 H112       26.9484   -1.1874  -10.4904 H         1 UNK         0.0806 
    113 H113       26.2351   -1.3761   -8.8962 H         1 UNK         0.0806 
    114 H114       27.9246   -0.9016   -9.0584 H         1 UNK         0.0806 
    115 H115       26.2712    3.1662   -9.9944 H         1 UNK         0.3000 
    116 H116       27.2665    4.8420  -11.0716 H         1 UNK         0.0850 
    117 H117       28.2125    4.4210  -13.3610 H         1 UNK         0.0810 
    118 H118       26.6632    3.6380  -13.1253 H         1 UNK         0.0810 
    119 H119       28.1357    2.6825  -13.0794 H         1 UNK         0.0810 
    120 H120       29.9800    3.1629  -12.3759 H         1 UNK         0.3040 
    121 H121       31.8873    4.5832  -10.7043 H         1 UNK         0.0766 
    122 H122       32.3056    4.1852  -13.1295 H         1 UNK         0.0812 
    123 H123       32.2862    2.4400  -12.8640 H         1 UNK         0.0812 
    124 H124       33.5537    3.4287  -12.1544 H         1 UNK         0.0812 
    125 H125       30.2250    1.5790  -10.3887 H         1 UNK         0.3205 
    126 H126       30.2821   -0.1306   -9.0348 H         1 UNK         0.0754 
    127 H127       31.1726    0.0642   -6.7752 H         1 UNK         0.0769 
    128 H128       30.5664    1.6359   -7.2362 H         1 UNK         0.0769 
    129 H129       32.2998    1.3340   -7.2484 H         1 UNK         0.0769 
    130 H130       32.5481   -1.1828   -7.4758 H         1 UNK         0.2981 
    131 H131       33.8869   -2.6571   -9.6186 H         1 UNK         0.0541 
    132 H132       34.7321    0.2753   -8.2617 H         1 UNK         0.3459 
    133 H133       36.4638    0.0659   -8.3273 H         1 UNK         0.3459 
    134 H134       32.9230   -4.0555   -7.9623 H         1 UNK         0.0612 
    135 H135       34.6390   -4.1675   -7.7577 H         1 UNK         0.0612 
    136 H136       31.5132   -4.1899   -5.9796 H         1 UNK         0.0624 
    137 H137       31.3102   -2.4939   -6.3417 H         1 UNK         0.0624 
@<TRIPOS>BOND
     1    1    2 1    
     2    1   72 1    
     3    1   73 1    
     4    1   74 1    
     5    2    3 2    
     6    2    4 am   BACKBONE|DICT|INTERRES
     7    4    5 1    
     8    4   75 1    
     9    5    6 1    
    10    5   35 1    
    11    5   76 1    
    12    6    7 1    
    13    6   77 1    
    14    6   78 1    
    15    7    8 1    
    16    8    9 1    
    17    8   79 1    
    18    8   80 1    
    19    9   10 ar   
    20    9   14 ar   
    21   10   11 ar   
    22   10   81 1    
    23   11   12 ar   
    24   11   71 1    
    25   12   13 ar   
    26   12   82 1    
    27   13   14 ar   
    28   13   15 1    
    29   14   83 1    
    30   15   16 1    
    31   15   84 1    
    32   15   85 1    
    33   16   17 1    
    34   17   18 1    
    35   17   86 1    
    36   17   87 1    
    37   18   19 1    
    38   18   37 1    
    39   18   88 1    
    40   19   20 am   BACKBONE|DICT|INTERRES
    41   19   89 1    
    42   20   21 2    
    43   20   22 1    
    44   22   23 1    
    45   22   24 1    
    46   22   90 1    
    47   23   91 1    
    48   23   92 1    
    49   23   93 1    
    50   24   25 am   BACKBONE|DICT|INTERRES
    51   24   94 1    
    52   25   26 2    
    53   25   27 1    
    54   27   28 1    
    55   27   29 1    
    56   27   95 1    
    57   28   96 1    
    58   28   97 1    
    59   28   98 1    
    60   29   30 am   BACKBONE|DICT|INTERRES
    61   29   99 1    
    62   30   31 2    
    63   30   32 1    
    64   32   33 1    
    65   32   34 1    
    66   32  100 1    
    67   33  101 1    
    68   33  102 1    
    69   33  103 1    
    70   34   35 am   BACKBONE|DICT|INTERRES
    71   34  104 1    
    72   35   36 2    
    73   37   38 2    
    74   37   39 am   BACKBONE|DICT|INTERRES
    75   39   40 1    
    76   39  105 1    
    77   40   41 1    
    78   40   42 1    
    79   40  106 1    
    80   41  107 1    
    81   41  108 1    
    82   41  109 1    
    83   42   43 2    
    84   42   44 am   BACKBONE|DICT|INTERRES
    85   44   45 1    
    86   44  110 1    
    87   45   46 1    
    88   45   47 1    
    89   45  111 1    
    90   46  112 1    
    91   46  113 1    
    92   46  114 1    
    93   47   48 2    
    94   47   49 am   BACKBONE|DICT|INTERRES
    95   49   50 1    
    96   49  115 1    
    97   50   51 1    
    98   50   52 1    
    99   50  116 1    
   100   51  117 1    
   101   51  118 1    
   102   51  119 1    
   103   52   53 2    
   104   52   54 am   BACKBONE|DICT|INTERRES
   105   54   55 1    
   106   54  120 1    
   107   55   56 1    
   108   55   57 1    
   109   55  121 1    
   110   56  122 1    
   111   56  123 1    
   112   56  124 1    
   113   57   58 2    
   114   57   59 am   BACKBONE|DICT|INTERRES
   115   59   60 1    
   116   59  125 1    
   117   60   61 1    
   118   60   62 1    
   119   60  126 1    
   120   61  127 1    
   121   61  128 1    
   122   61  129 1    
   123   62   63 2    
   124   62   64 am   BACKBONE|DICT|INTERRES
   125   64   65 1    
   126   64  130 1    
   127   65   66 1    
   128   65   69 1    
   129   65  131 1    
   130   66   67 am   BACKBONE|DICT|INTERRES
   131   66   68 2    
   132   67  132 1    
   133   67  133 1    
   134   69   70 1    
   135   69  134 1    
   136   69  135 1    
   137   70   71 1    
   138   71  136 1    
   139   71  137 1    
@<TRIPOS>SUBSTRUCTURE
     1 UNK         1 GROUP             0       ****    0 ROOT    
