@<TRIPOS>MOLECULE
3R137
137   139    1
SMALL
USER_CHARGES


@<TRIPOS>ATOM
      1 CA         27.4763   -3.0052    3.6136 C.3       0 UNK        -0.2020 
      2 C          26.9226   -1.9383    2.6808 C.2       0 UNK         0.4855 
      3 O          26.2095   -1.0409    3.1318 O.2       0 UNK        -0.5197 
      4 N          27.2527   -2.0234    1.3866 N.am      1 UNK        -0.4892 
      5 CA         26.7666   -1.1160    0.3408 C.3       1 UNK         0.0835 
      6 C6         27.6403   -1.1846   -0.9353 C.3       12 UNK        -0.0855 
      7 S7         29.3455   -0.6142   -0.6309 S.3       12 UNK        -0.2931 
      8 C8         30.3208   -2.1028   -1.0161 C.3       12 UNK         0.0378 
      9 C9         30.5155   -2.2919   -2.5151 C.ar      12 UNK        -0.0802 
     10 C10        31.3900   -1.4535   -3.2135 C.ar      12 UNK        -0.0944 
     11 C11        31.6200   -1.6453   -4.5785 C.ar      12 UNK        -0.0787 
     12 C12        30.9722   -2.6871   -5.2475 C.ar      12 UNK        -0.0862 
     13 C13        30.0999   -3.5364   -4.5610 C.ar      12 UNK        -0.0733 
     14 C14        29.8654   -3.3266   -3.1969 C.ar      12 UNK        -0.0832 
     15 C15        29.4571   -4.7170   -5.2745 C.3       12 UNK         0.0240 
     16 S16        27.8855   -4.2714   -6.0722 S.3       12 UNK        -0.2522 
     17 C17        28.4204   -3.7142   -7.7329 C.3       12 UNK        -0.0967 
     18 CA         27.7865   -2.3723   -8.1800 C.3       5 UNK         0.0660 
     19 N          26.3343   -2.3668   -7.9833 N.am      5 UNK        -0.4015 
     20 C          25.4897   -1.4257   -8.4213 C.2       4 UNK         0.4946 
     21 O          25.8321   -0.4625   -9.1030 O.2       4 UNK        -0.5353 
     22 CA         24.0196   -1.5537   -7.9904 C.3       4 UNK         0.0277 
     23 CB         23.2287   -2.3723   -9.0229 C.3       4 UNK        -0.1981 
     24 N          23.8343   -2.1340   -6.6554 N.am      4 UNK        -0.4209 
     25 C          24.3183   -1.6206   -5.5160 C.2       3 UNK         0.4942 
     26 O          25.0451   -0.6240   -5.4579 O.2       3 UNK        -0.5208 
     27 CA         23.9639   -2.3793   -4.2344 C.3       3 UNK         0.0250 
     28 CB         25.0092   -3.4684   -3.9402 C.3       3 UNK        -0.1990 
     29 N          23.9260   -1.4446   -3.1144 N.am      3 UNK        -0.4232 
     30 C          23.0016   -1.4350   -2.1461 C.2       2 UNK         0.4993 
     31 O          22.0395   -2.2054   -2.1087 O.2       2 UNK        -0.5286 
     32 CA         23.2128   -0.4026   -1.0189 C.3       2 UNK         0.0209 
     33 CB         22.2237   -0.5784    0.1543 C.3       2 UNK        -0.1931 
     34 N          24.5996   -0.3786   -0.5269 N.am      2 UNK        -0.4546 
     35 C          25.2931   -1.4072   -0.0103 C.2       1 UNK         0.5154 
     36 O          24.8375   -2.5434    0.1482 O.2       1 UNK        -0.5181 
     37 C          28.4866   -1.1592   -7.5341 C.2       5 UNK         0.5014 
     38 O          29.4189   -0.6131   -8.1275 O.2       5 UNK        -0.5248 
     39 N          28.0136   -0.7381   -6.3541 N.am      6 UNK        -0.4434 
     40 CA         28.5083    0.4470   -5.6583 C.3       6 UNK         0.0363 
     41 CB         28.1445    0.3622   -4.1720 C.3       6 UNK        -0.1936 
     42 C          27.9599    1.7343   -6.2871 C.2       6 UNK         0.5081 
     43 O          28.7120    2.6965   -6.4328 O.2       6 UNK        -0.5248 
     44 N          26.6785    1.7199   -6.6855 N.am      7 UNK        -0.4718 
     45 CA         26.0080    2.8314   -7.3701 C.3       7 UNK         0.0273 
     46 CB         24.5044    2.5372   -7.4854 C.3       7 UNK        -0.1935 
     47 C          26.6138    3.1389   -8.7519 C.2       7 UNK         0.5018 
     48 O          26.8008    4.3095   -9.0849 O.2       7 UNK        -0.5186 
     49 N          26.9430    2.0850   -9.5117 N.am      8 UNK        -0.4240 
     50 CA         27.6505    2.1578  -10.7935 C.3       8 UNK         0.0235 
     51 CB         27.4342    0.8405  -11.5576 C.3       8 UNK        -0.2000 
     52 C          29.1577    2.4419  -10.6501 C.2       8 UNK         0.4941 
     53 O          29.7988    2.7447  -11.6572 O.2       8 UNK        -0.5273 
     54 N          29.6928    2.3252   -9.4247 N.am      9 UNK        -0.4262 
     55 CA         31.0996    2.4730   -9.0413 C.3       9 UNK         0.0264 
     56 CB         31.5723    3.9310   -9.2224 C.3       9 UNK        -0.1955 
     57 C          32.0084    1.4477   -9.7438 C.2       9 UNK         0.5031 
     58 O          33.0499    1.8141  -10.2935 O.2       9 UNK        -0.5390 
     59 N          31.6125    0.1665   -9.6859 N.am      10 UNK        -0.4204 
     60 CA         32.3268   -0.9751  -10.2762 C.3       10 UNK         0.0237 
     61 CB         31.4810   -2.2461  -10.0939 C.3       10 UNK        -0.1985 
     62 C          33.7463   -1.1920   -9.7158 C.2       10 UNK         0.4970 
     63 O          34.5722   -1.8154  -10.3834 O.2       10 UNK        -0.4914 
     64 N          34.0014   -0.6589   -8.5159 N.am      11 UNK        -0.4285 
     65 CA         35.3168   -0.5823   -7.8693 C.3       11 UNK         0.1007 
     66 C          36.3052    0.4136   -8.5468 C.2       11 UNK         0.5703 
     67 N          35.8684    1.2989   -9.4370 N.am      11 UNK        -0.7361 
     68 O          37.4995    0.3761   -8.2603 O.2       11 UNK        -0.4986 
     69 C69        35.1748   -0.2702   -6.3561 C.3       12 UNK        -0.0947 
     70 S70        34.2222   -1.5399   -5.4587 S.3       12 UNK        -0.2240 
     71 C71        32.5898   -0.7469   -5.3264 C.3       12 UNK         0.0194 
     72 H72        26.6596   -3.5528    4.0832 H         1 UNK         0.0906 
     73 H73        28.1061   -3.7218    3.0867 H         1 UNK         0.0906 
     74 H74        28.0735   -2.5435    4.3995 H         1 UNK         0.0906 
     75 H75        27.8213   -2.7936    1.0673 H         1 UNK         0.3140 
     76 H76        26.8155   -0.0979    0.7350 H         1 UNK         0.1085 
     77 H77        27.6447   -2.1935   -1.3524 H         1 UNK         0.0836 
     78 H78        27.2225   -0.5416   -1.7098 H         1 UNK         0.0836 
     79 H79        31.2994   -2.0077   -0.5433 H         1 UNK         0.0731 
     80 H80        29.8535   -2.9793   -0.5648 H         1 UNK         0.0731 
     81 H81        31.9005   -0.6579   -2.6881 H         1 UNK         0.1312 
     82 H82        31.1688   -2.8478   -6.2981 H         1 UNK         0.1406 
     83 H83        29.1978   -3.9879   -2.6614 H         1 UNK         0.1631 
     84 H84        29.2614   -5.5153   -4.5570 H         1 UNK         0.0717 
     85 H85        30.1442   -5.1416   -6.0080 H         1 UNK         0.0717 
     86 H86        29.5086   -3.6673   -7.7904 H         1 UNK         0.0934 
     87 H87        28.1337   -4.4946   -8.4396 H         1 UNK         0.0934 
     88 H88        27.9545   -2.2764   -9.2551 H         1 UNK         0.0739 
     89 H89        25.9679   -3.1190   -7.4183 H         1 UNK         0.3093 
     90 H90        23.5997   -0.5470   -7.9648 H         1 UNK         0.0818 
     91 H91        22.1636   -2.3833   -8.7906 H         1 UNK         0.0819 
     92 H92        23.3346   -1.9459  -10.0217 H         1 UNK         0.0819 
     93 H93        23.5736   -3.4059   -9.0721 H         1 UNK         0.0819 
     94 H94        23.2595   -2.9634   -6.6042 H         1 UNK         0.3041 
     95 H95        22.9854   -2.8453   -4.3704 H         1 UNK         0.0784 
     96 H96        25.0489   -4.2046   -4.7438 H         1 UNK         0.0793 
     97 H97        26.0100   -3.0483   -3.8282 H         1 UNK         0.0793 
     98 H98        24.7710   -4.0057   -3.0219 H         1 UNK         0.0793 
     99 H99        24.6424   -0.7315   -3.1299 H         1 UNK         0.3024 
    100 H100       23.0191    0.5742   -1.4659 H         1 UNK         0.1171 
    101 H101       21.1917   -0.4893   -0.1874 H         1 UNK         0.0786 
    102 H102       22.3768    0.1824    0.9196 H         1 UNK         0.0786 
    103 H103       22.3255   -1.5553    0.6283 H         1 UNK         0.0786 
    104 H104       25.0720    0.5104   -0.6215 H         1 UNK         0.2977 
    105 H105       27.2130   -1.2048   -5.9496 H         1 UNK         0.3127 
    106 H106       29.5978    0.4675   -5.7361 H         1 UNK         0.0770 
    107 H107       27.0663    0.3844   -4.0139 H         1 UNK         0.0814 
    108 H108       28.5757    1.1957   -3.6162 H         1 UNK         0.0814 
    109 H109       28.5328   -0.5556   -3.7325 H         1 UNK         0.0814 
    110 H110       26.1242    0.8918   -6.4952 H         1 UNK         0.2983 
    111 H111       26.1338    3.7216   -6.7499 H         1 UNK         0.0947 
    112 H112       23.9724    3.3948   -7.8992 H         1 UNK         0.0806 
    113 H113       24.0638    2.3196   -6.5121 H         1 UNK         0.0806 
    114 H114       24.3090    1.6890   -8.1408 H         1 UNK         0.0806 
    115 H115       26.6708    1.1534   -9.1993 H         1 UNK         0.3000 
    116 H116       27.2185    2.9711  -11.3805 H         1 UNK         0.0850 
    117 H117       27.9058    0.8737  -12.5406 H         1 UNK         0.0810 
    118 H118       26.3737    0.6416  -11.7135 H         1 UNK         0.0810 
    119 H119       27.8582   -0.0088  -11.0198 H         1 UNK         0.0810 
    120 H120       29.0684    2.0767   -8.6686 H         1 UNK         0.3040 
    121 H121       31.1481    2.2436   -7.9757 H         1 UNK         0.0766 
    122 H122       32.5813    4.0650   -8.8304 H         1 UNK         0.0812 
    123 H123       30.9228    4.6258   -8.6900 H         1 UNK         0.0812 
    124 H124       31.5911    4.2253  -10.2722 H         1 UNK         0.0812 
    125 H125       30.7527   -0.0536   -9.1801 H         1 UNK         0.3205 
    126 H126       32.4279   -0.7782  -11.3453 H         1 UNK         0.0754 
    127 H127       31.9537   -3.1038  -10.5744 H         1 UNK         0.0769 
    128 H128       30.4909   -2.1320  -10.5358 H         1 UNK         0.0769 
    129 H129       31.3521   -2.4924   -9.0394 H         1 UNK         0.0769 
    130 H130       33.2556   -0.1650   -8.0541 H         1 UNK         0.2981 
    131 H131       35.7778   -1.5675   -7.9621 H         1 UNK         0.0541 
    132 H132       34.8876    1.3557   -9.6921 H         1 UNK         0.3459 
    133 H133       36.5292    1.9285   -9.8631 H         1 UNK         0.3459 
    134 H134       34.7180    0.7094   -6.2036 H         1 UNK         0.0612 
    135 H135       36.1583   -0.2209   -5.8850 H         1 UNK         0.0612 
    136 H136       32.6903    0.2126   -4.8164 H         1 UNK         0.0624 
    137 H137       32.1963   -0.5330   -6.3208 H         1 UNK         0.0624 
@<TRIPOS>BOND
     1    1    2 1    
     2    1   72 1    
     3    1   73 1    
     4    1   74 1    
     5    2    3 2    
     6    2    4 am   BACKBONE|DICT|INTERRES
     7    4    5 1    
     8    4   75 1    
     9    5    6 1    
    10    5   35 1    
    11    5   76 1    
    12    6    7 1    
    13    6   77 1    
    14    6   78 1    
    15    7    8 1    
    16    8    9 1    
    17    8   79 1    
    18    8   80 1    
    19    9   10 ar   
    20    9   14 ar   
    21   10   11 ar   
    22   10   81 1    
    23   11   12 ar   
    24   11   71 1    
    25   12   13 ar   
    26   12   82 1    
    27   13   14 ar   
    28   13   15 1    
    29   14   83 1    
    30   15   16 1    
    31   15   84 1    
    32   15   85 1    
    33   16   17 1    
    34   17   18 1    
    35   17   86 1    
    36   17   87 1    
    37   18   19 1    
    38   18   37 1    
    39   18   88 1    
    40   19   20 am   BACKBONE|DICT|INTERRES
    41   19   89 1    
    42   20   21 2    
    43   20   22 1    
    44   22   23 1    
    45   22   24 1    
    46   22   90 1    
    47   23   91 1    
    48   23   92 1    
    49   23   93 1    
    50   24   25 am   BACKBONE|DICT|INTERRES
    51   24   94 1    
    52   25   26 2    
    53   25   27 1    
    54   27   28 1    
    55   27   29 1    
    56   27   95 1    
    57   28   96 1    
    58   28   97 1    
    59   28   98 1    
    60   29   30 am   BACKBONE|DICT|INTERRES
    61   29   99 1    
    62   30   31 2    
    63   30   32 1    
    64   32   33 1    
    65   32   34 1    
    66   32  100 1    
    67   33  101 1    
    68   33  102 1    
    69   33  103 1    
    70   34   35 am   BACKBONE|DICT|INTERRES
    71   34  104 1    
    72   35   36 2    
    73   37   38 2    
    74   37   39 am   BACKBONE|DICT|INTERRES
    75   39   40 1    
    76   39  105 1    
    77   40   41 1    
    78   40   42 1    
    79   40  106 1    
    80   41  107 1    
    81   41  108 1    
    82   41  109 1    
    83   42   43 2    
    84   42   44 am   BACKBONE|DICT|INTERRES
    85   44   45 1    
    86   44  110 1    
    87   45   46 1    
    88   45   47 1    
    89   45  111 1    
    90   46  112 1    
    91   46  113 1    
    92   46  114 1    
    93   47   48 2    
    94   47   49 am   BACKBONE|DICT|INTERRES
    95   49   50 1    
    96   49  115 1    
    97   50   51 1    
    98   50   52 1    
    99   50  116 1    
   100   51  117 1    
   101   51  118 1    
   102   51  119 1    
   103   52   53 2    
   104   52   54 am   BACKBONE|DICT|INTERRES
   105   54   55 1    
   106   54  120 1    
   107   55   56 1    
   108   55   57 1    
   109   55  121 1    
   110   56  122 1    
   111   56  123 1    
   112   56  124 1    
   113   57   58 2    
   114   57   59 am   BACKBONE|DICT|INTERRES
   115   59   60 1    
   116   59  125 1    
   117   60   61 1    
   118   60   62 1    
   119   60  126 1    
   120   61  127 1    
   121   61  128 1    
   122   61  129 1    
   123   62   63 2    
   124   62   64 am   BACKBONE|DICT|INTERRES
   125   64   65 1    
   126   64  130 1    
   127   65   66 1    
   128   65   69 1    
   129   65  131 1    
   130   66   67 am   BACKBONE|DICT|INTERRES
   131   66   68 2    
   132   67  132 1    
   133   67  133 1    
   134   69   70 1    
   135   69  134 1    
   136   69  135 1    
   137   70   71 1    
   138   71  136 1    
   139   71  137 1    
@<TRIPOS>SUBSTRUCTURE
     1 UNK         1 GROUP             0       ****    0 ROOT    
