@<TRIPOS>MOLECULE
3R137
137   139    1
SMALL
USER_CHARGES


@<TRIPOS>ATOM
      1 CA         23.9047   -6.2615   -2.4791 C.3       0 UNK        -0.2020 
      2 C          25.0306   -5.4397   -1.8707 C.2       0 UNK         0.4855 
      3 O          24.8931   -4.9437   -0.7519 O.2       0 UNK        -0.5197 
      4 N          26.1420   -5.2783   -2.6010 N.am      1 UNK        -0.4892 
      5 CA         27.3172   -4.4943   -2.2040 C.3       1 UNK         0.0835 
      6 C6         28.5762   -4.9829   -2.9651 C.3       12 UNK        -0.0855 
      7 S7         30.1332   -4.3215   -2.2747 S.3       12 UNK        -0.2931 
      8 C8         30.7773   -3.3924   -3.7027 C.3       12 UNK         0.0378 
      9 C9         31.4864   -2.1173   -3.2795 C.ar      12 UNK        -0.0802 
     10 C10        32.8606   -1.9630   -3.4785 C.ar      12 UNK        -0.0944 
     11 C11        33.4866   -0.7481   -3.1828 C.ar      12 UNK        -0.0787 
     12 C12        32.7308    0.3037   -2.6521 C.ar      12 UNK        -0.0862 
     13 C13        31.3622    0.1464   -2.4094 C.ar      12 UNK        -0.0733 
     14 C14        30.7481   -1.0672   -2.7293 C.ar      12 UNK        -0.0832 
     15 C15        30.5605    1.2757   -1.7748 C.3       12 UNK         0.0240 
     16 S16        29.7611    2.3478   -3.0129 S.3       12 UNK        -0.2522 
     17 C17        28.2393    1.4190   -3.3982 C.3       12 UNK        -0.0967 
     18 CA         27.9716    1.3294   -4.9245 C.3       5 UNK         0.0660 
     19 N          27.4660    0.0118   -5.3212 N.am      5 UNK        -0.4015 
     20 C          27.2636   -0.3884   -6.5852 C.2       4 UNK         0.4946 
     21 O          27.5661    0.2755   -7.5776 O.2       4 UNK        -0.5353 
     22 CA         26.5494   -1.7373   -6.7702 C.3       4 UNK         0.0277 
     23 CB         27.5489   -2.9048   -6.7471 C.3       4 UNK        -0.1981 
     24 N          25.5151   -1.9501   -5.7538 N.am      4 UNK        -0.4209 
     25 C          24.3581   -1.2728   -5.7042 C.2       3 UNK         0.4942 
     26 O          24.0191   -0.4383   -6.5418 O.2       3 UNK        -0.5208 
     27 CA         23.4463   -1.5364   -4.4929 C.3       3 UNK         0.0250 
     28 CB         22.6017   -2.8015   -4.7147 C.3       3 UNK        -0.1990 
     29 N          24.1871   -1.6576   -3.2350 N.am      3 UNK        -0.4232 
     30 C          24.9245   -0.6834   -2.6823 C.2       2 UNK         0.4993 
     31 O          25.0184    0.4516   -3.1458 O.2       2 UNK        -0.5286 
     32 CA         25.7457   -1.0532   -1.4362 C.3       2 UNK         0.0209 
     33 CB         24.9317   -0.7953   -0.1591 C.3       2 UNK        -0.1931 
     34 N          26.2204   -2.4408   -1.4423 N.am      2 UNK        -0.4546 
     35 C          27.0214   -2.9859   -2.3685 C.2       1 UNK         0.5154 
     36 O          27.4445   -2.3610   -3.3446 O.2       1 UNK        -0.5181 
     37 C          27.0344    2.4604   -5.3997 C.2       5 UNK         0.5014 
     38 O          27.4935    3.4002   -6.0491 O.2       5 UNK        -0.5248 
     39 N          25.7316    2.3243   -5.1069 N.am      6 UNK        -0.4434 
     40 CA         24.6670    3.2461   -5.5167 C.3       6 UNK         0.0363 
     41 CB         23.3462    2.8303   -4.8502 C.3       6 UNK        -0.1936 
     42 C          24.4942    3.3443   -7.0424 C.2       6 UNK         0.5081 
     43 O          24.2205    4.4316   -7.5507 O.2       6 UNK        -0.5248 
     44 N          24.6922    2.2228   -7.7487 N.am      7 UNK        -0.4718 
     45 CA         24.7193    2.1472   -9.2129 C.3       7 UNK         0.0273 
     46 CB         24.5419    0.6803   -9.6395 C.3       7 UNK        -0.1935 
     47 C          25.9960    2.7389   -9.8450 C.2       7 UNK         0.5018 
     48 O          26.0400    2.8718  -11.0689 O.2       7 UNK        -0.5186 
     49 N          27.0027    3.0677   -9.0199 N.am      8 UNK        -0.4240 
     50 CA         28.3293    3.5792   -9.3792 C.3       8 UNK         0.0235 
     51 CB         28.2305    4.9761  -10.0296 C.3       8 UNK        -0.2000 
     52 C          29.1541    2.5765  -10.2085 C.2       8 UNK         0.4941 
     53 O          29.8897    2.9827  -11.1114 O.2       8 UNK        -0.5273 
     54 N          29.0241    1.2828   -9.8856 N.am      9 UNK        -0.4262 
     55 CA         29.8191    0.2034  -10.4692 C.3       9 UNK         0.0264 
     56 CB         29.0587   -1.1209  -10.2907 C.3       9 UNK        -0.1955 
     57 C          31.2095    0.1264   -9.8143 C.2       9 UNK         0.5031 
     58 O          31.4226    0.6839   -8.7334 O.2       9 UNK        -0.5390 
     59 N          32.1286   -0.5890  -10.4746 N.am      10 UNK        -0.4204 
     60 CA         33.4639   -0.8995   -9.9580 C.3       10 UNK         0.0237 
     61 CB         34.3141   -1.4951  -11.0930 C.3       10 UNK        -0.1985 
     62 C          33.4030   -1.8692   -8.7639 C.2       10 UNK         0.4970 
     63 O          32.4636   -2.6627   -8.6641 O.2       10 UNK        -0.4914 
     64 N          34.4242   -1.8048   -7.9016 N.am      11 UNK        -0.4285 
     65 CA         34.5483   -2.6339   -6.6911 C.3       11 UNK         0.1007 
     66 C          34.7591   -4.1558   -6.9466 C.2       11 UNK         0.5703 
     67 N          35.1475   -4.5847   -8.1420 N.am      11 UNK        -0.7361 
     68 O          34.5621   -4.9605   -6.0394 O.2       11 UNK        -0.4986 
     69 C69        35.6430   -2.0935   -5.7326 C.3       12 UNK        -0.0947 
     70 S70        35.3661   -0.3693   -5.1956 S.3       12 UNK        -0.2240 
     71 C71        34.9791   -0.5704   -3.4251 C.3       12 UNK         0.0194 
     72 H72        24.1568   -6.6278   -3.4741 H         1 UNK         0.0906 
     73 H73        23.6855   -7.1215   -1.8469 H         1 UNK         0.0906 
     74 H74        23.0005   -5.6586   -2.5588 H         1 UNK         0.0906 
     75 H75        26.1913   -5.7002   -3.5179 H         1 UNK         0.3140 
     76 H76        27.4969   -4.6717   -1.1407 H         1 UNK         0.1085 
     77 H77        28.6433   -6.0697   -2.8923 H         1 UNK         0.0836 
     78 H78        28.4944   -4.7702   -4.0321 H         1 UNK         0.0836 
     79 H79        29.9656   -3.1090   -4.3724 H         1 UNK         0.0731 
     80 H80        31.4395   -4.0392   -4.2806 H         1 UNK         0.0731 
     81 H81        33.4395   -2.7813   -3.8823 H         1 UNK         0.1312 
     82 H82        33.2103    1.2438   -2.4149 H         1 UNK         0.1406 
     83 H83        29.6930   -1.2105   -2.5503 H         1 UNK         0.1631 
     84 H84        31.2196    1.8923   -1.1618 H         1 UNK         0.0717 
     85 H85        29.8109    0.8734   -1.0914 H         1 UNK         0.0717 
     86 H86        28.3254    0.4209   -2.9759 H         1 UNK         0.0934 
     87 H87        27.4076    1.8741   -2.8559 H         1 UNK         0.0934 
     88 H88        28.9182    1.4496   -5.4567 H         1 UNK         0.0739 
     89 H89        27.2254   -0.6317   -4.5765 H         1 UNK         0.3093 
     90 H90        26.0667   -1.7260   -7.7496 H         1 UNK         0.0818 
     91 H91        28.0746   -2.9708   -5.7961 H         1 UNK         0.0819 
     92 H92        27.0494   -3.8579   -6.9210 H         1 UNK         0.0819 
     93 H93        28.3048   -2.7916   -7.5237 H         1 UNK         0.0819 
     94 H94        25.7466   -2.5760   -4.9954 H         1 UNK         0.3041 
     95 H95        22.7697   -0.6843   -4.3986 H         1 UNK         0.0784 
     96 H96        22.0259   -2.7276   -5.6385 H         1 UNK         0.0793 
     97 H97        23.2204   -3.6969   -4.7871 H         1 UNK         0.0793 
     98 H98        21.8892   -2.9502   -3.9030 H         1 UNK         0.0793 
     99 H99        24.1647   -2.5542   -2.7723 H         1 UNK         0.3024 
    100 H100       26.6224   -0.4033   -1.4196 H         1 UNK         0.1171 
    101 H101       24.5784    0.2364   -0.1228 H         1 UNK         0.0786 
    102 H102       25.5335   -0.9611    0.7348 H         1 UNK         0.0786 
    103 H103       24.0561   -1.4431   -0.0993 H         1 UNK         0.0786 
    104 H104       25.8405   -3.0602   -0.7342 H         1 UNK         0.2977 
    105 H105       25.4470    1.5437   -4.5150 H         1 UNK         0.3127 
    106 H106       24.9363    4.2396   -5.1522 H         1 UNK         0.0770 
    107 H107       23.0377    1.8307   -5.1582 H         1 UNK         0.0814 
    108 H108       22.5414    3.5175   -5.1144 H         1 UNK         0.0814 
    109 H109       23.4322    2.8329   -3.7634 H         1 UNK         0.0814 
    110 H110       24.8334    1.3518   -7.2471 H         1 UNK         0.2983 
    111 H111       23.8740    2.7200   -9.6003 H         1 UNK         0.0947 
    112 H112       24.4960    0.5899  -10.7255 H         1 UNK         0.0806 
    113 H113       23.6191    0.2586   -9.2408 H         1 UNK         0.0806 
    114 H114       25.3704    0.0605   -9.2964 H         1 UNK         0.0806 
    115 H115       26.8672    2.9067   -8.0280 H         1 UNK         0.3000 
    116 H116       28.8683    3.6961   -8.4378 H         1 UNK         0.0850 
    117 H117       29.2198    5.4159  -10.1613 H         1 UNK         0.0810 
    118 H118       27.6524    5.6613   -9.4096 H         1 UNK         0.0810 
    119 H119       27.7612    4.9344  -11.0129 H         1 UNK         0.0810 
    120 H120       28.4446    1.0305   -9.0869 H         1 UNK         0.3040 
    121 H121       29.9448    0.3935  -11.5374 H         1 UNK         0.0766 
    122 H122       28.0538   -1.0639  -10.7097 H         1 UNK         0.0812 
    123 H123       28.9682   -1.3853   -9.2380 H         1 UNK         0.0812 
    124 H124       29.5726   -1.9439  -10.7886 H         1 UNK         0.0812 
    125 H125       31.8625   -1.0430  -11.3363 H         1 UNK         0.3205 
    126 H126       33.9244    0.0337   -9.6259 H         1 UNK         0.0754 
    127 H127       35.3317   -1.6986  -10.7571 H         1 UNK         0.0769 
    128 H128       34.3870   -0.8084  -11.9368 H         1 UNK         0.0769 
    129 H129       33.8978   -2.4346  -11.4595 H         1 UNK         0.0769 
    130 H130       35.1623   -1.1336   -8.0539 H         1 UNK         0.2981 
    131 H131       33.5903   -2.5573   -6.1754 H         1 UNK         0.0541 
    132 H132       35.3090   -3.9332   -8.8924 H         1 UNK         0.3459 
    133 H133       35.2765   -5.5727   -8.2932 H         1 UNK         0.3459 
    134 H134       35.7281   -2.7307   -4.8510 H         1 UNK         0.0612 
    135 H135       36.6186   -2.1354   -6.2203 H         1 UNK         0.0612 
    136 H136       35.3396    0.3147   -2.8988 H         1 UNK         0.0624 
    137 H137       35.5311   -1.4106   -3.0024 H         1 UNK         0.0624 
@<TRIPOS>BOND
     1    1    2 1    
     2    1   72 1    
     3    1   73 1    
     4    1   74 1    
     5    2    3 2    
     6    2    4 am   BACKBONE|DICT|INTERRES
     7    4    5 1    
     8    4   75 1    
     9    5    6 1    
    10    5   35 1    
    11    5   76 1    
    12    6    7 1    
    13    6   77 1    
    14    6   78 1    
    15    7    8 1    
    16    8    9 1    
    17    8   79 1    
    18    8   80 1    
    19    9   10 ar   
    20    9   14 ar   
    21   10   11 ar   
    22   10   81 1    
    23   11   12 ar   
    24   11   71 1    
    25   12   13 ar   
    26   12   82 1    
    27   13   14 ar   
    28   13   15 1    
    29   14   83 1    
    30   15   16 1    
    31   15   84 1    
    32   15   85 1    
    33   16   17 1    
    34   17   18 1    
    35   17   86 1    
    36   17   87 1    
    37   18   19 1    
    38   18   37 1    
    39   18   88 1    
    40   19   20 am   BACKBONE|DICT|INTERRES
    41   19   89 1    
    42   20   21 2    
    43   20   22 1    
    44   22   23 1    
    45   22   24 1    
    46   22   90 1    
    47   23   91 1    
    48   23   92 1    
    49   23   93 1    
    50   24   25 am   BACKBONE|DICT|INTERRES
    51   24   94 1    
    52   25   26 2    
    53   25   27 1    
    54   27   28 1    
    55   27   29 1    
    56   27   95 1    
    57   28   96 1    
    58   28   97 1    
    59   28   98 1    
    60   29   30 am   BACKBONE|DICT|INTERRES
    61   29   99 1    
    62   30   31 2    
    63   30   32 1    
    64   32   33 1    
    65   32   34 1    
    66   32  100 1    
    67   33  101 1    
    68   33  102 1    
    69   33  103 1    
    70   34   35 am   BACKBONE|DICT|INTERRES
    71   34  104 1    
    72   35   36 2    
    73   37   38 2    
    74   37   39 am   BACKBONE|DICT|INTERRES
    75   39   40 1    
    76   39  105 1    
    77   40   41 1    
    78   40   42 1    
    79   40  106 1    
    80   41  107 1    
    81   41  108 1    
    82   41  109 1    
    83   42   43 2    
    84   42   44 am   BACKBONE|DICT|INTERRES
    85   44   45 1    
    86   44  110 1    
    87   45   46 1    
    88   45   47 1    
    89   45  111 1    
    90   46  112 1    
    91   46  113 1    
    92   46  114 1    
    93   47   48 2    
    94   47   49 am   BACKBONE|DICT|INTERRES
    95   49   50 1    
    96   49  115 1    
    97   50   51 1    
    98   50   52 1    
    99   50  116 1    
   100   51  117 1    
   101   51  118 1    
   102   51  119 1    
   103   52   53 2    
   104   52   54 am   BACKBONE|DICT|INTERRES
   105   54   55 1    
   106   54  120 1    
   107   55   56 1    
   108   55   57 1    
   109   55  121 1    
   110   56  122 1    
   111   56  123 1    
   112   56  124 1    
   113   57   58 2    
   114   57   59 am   BACKBONE|DICT|INTERRES
   115   59   60 1    
   116   59  125 1    
   117   60   61 1    
   118   60   62 1    
   119   60  126 1    
   120   61  127 1    
   121   61  128 1    
   122   61  129 1    
   123   62   63 2    
   124   62   64 am   BACKBONE|DICT|INTERRES
   125   64   65 1    
   126   64  130 1    
   127   65   66 1    
   128   65   69 1    
   129   65  131 1    
   130   66   67 am   BACKBONE|DICT|INTERRES
   131   66   68 2    
   132   67  132 1    
   133   67  133 1    
   134   69   70 1    
   135   69  134 1    
   136   69  135 1    
   137   70   71 1    
   138   71  136 1    
   139   71  137 1    
@<TRIPOS>SUBSTRUCTURE
     1 UNK         1 GROUP             0       ****    0 ROOT    
