@<TRIPOS>MOLECULE
3R137
137   139    1
SMALL
USER_CHARGES


@<TRIPOS>ATOM
      1 CA         24.6519   -5.6738   -4.8951 C.3       0 UNK        -0.2020 
      2 C          24.8878   -4.9721   -3.5671 C.2       0 UNK         0.4855 
      3 O          24.0196   -4.2351   -3.0993 O.2       0 UNK        -0.5197 
      4 N          26.0584   -5.1821   -2.9534 N.am      1 UNK        -0.4892 
      5 CA         26.4766   -4.5360   -1.7055 C.3       1 UNK         0.0835 
      6 C6         27.7355   -5.1831   -1.0631 C.3       12 UNK        -0.0855 
      7 S7         28.9614   -5.8663   -2.2359 S.3       12 UNK        -0.2931 
      8 C8         30.5052   -5.0468   -1.7250 C.3       12 UNK         0.0378 
      9 C9         30.7225   -3.7266   -2.4488 C.ar      12 UNK        -0.0802 
     10 C10        30.8786   -3.7181   -3.8371 C.ar      12 UNK        -0.0944 
     11 C11        31.1365   -2.5264   -4.5147 C.ar      12 UNK        -0.0787 
     12 C12        31.2556   -1.3373   -3.7936 C.ar      12 UNK        -0.0862 
     13 C13        31.0764   -1.3214   -2.4056 C.ar      12 UNK        -0.0733 
     14 C14        30.8114   -2.5242   -1.7395 C.ar      12 UNK        -0.0832 
     15 C15        31.1786   -0.0234   -1.6038 C.3       12 UNK         0.0240 
     16 S16        30.5366    1.4606   -2.4599 S.3       12 UNK        -0.2522 
     17 C17        28.8475    0.9387   -2.9052 C.3       12 UNK        -0.0967 
     18 CA         28.6366    0.9105   -4.4450 C.3       5 UNK         0.0660 
     19 N          27.8675   -0.2593   -4.8692 N.am      5 UNK        -0.4015 
     20 C          27.6772   -0.6488   -6.1378 C.2       4 UNK         0.4946 
     21 O          28.2237   -0.1342   -7.1154 O.2       4 UNK        -0.5353 
     22 CA         26.6619   -1.7834   -6.3510 C.3       4 UNK         0.0277 
     23 CB         27.3482   -3.1559   -6.2633 C.3       4 UNK        -0.1981 
     24 N          25.5511   -1.7118   -5.3942 N.am      4 UNK        -0.4209 
     25 C          24.6171   -0.7473   -5.4026 C.2       3 UNK         0.4942 
     26 O          24.5564    0.1353   -6.2562 O.2       3 UNK        -0.5208 
     27 CA         23.6172   -0.7211   -4.2361 C.3       3 UNK         0.0250 
     28 CB         22.4184   -1.6389   -4.5212 C.3       3 UNK        -0.1990 
     29 N          24.2420   -1.0710   -2.9570 N.am      3 UNK        -0.4232 
     30 C          25.1299   -0.2828   -2.3288 C.2       2 UNK         0.4993 
     31 O          25.4745    0.8189   -2.7525 O.2       2 UNK        -0.5286 
     32 CA         25.7853   -0.8100   -1.0400 C.3       2 UNK         0.0209 
     33 CB         25.0058   -0.3260    0.1926 C.3       2 UNK        -0.1931 
     34 N          25.9179   -2.2675   -0.9918 N.am      2 UNK        -0.4546 
     35 C          26.5948   -3.0081   -1.8804 C.2       1 UNK         0.5154 
     36 O          27.2239   -2.5303   -2.8283 O.2       1 UNK        -0.5181 
     37 C          28.0079    2.2206   -4.9615 C.2       5 UNK         0.5014 
     38 O          28.6988    3.0153   -5.5990 O.2       5 UNK        -0.5248 
     39 N          26.7047    2.4074   -4.7013 N.am      6 UNK        -0.4434 
     40 CA         25.9158    3.5713   -5.1162 C.3       6 UNK         0.0363 
     41 CB         24.5218    3.5041   -4.4728 C.3       6 UNK        -0.1936 
     42 C          25.7982    3.7181   -6.6418 C.2       6 UNK         0.5081 
     43 O          25.8870    4.8367   -7.1488 O.2       6 UNK        -0.5248 
     44 N          25.6263    2.5924   -7.3487 N.am      7 UNK        -0.4718 
     45 CA         25.6190    2.5268   -8.8132 C.3       7 UNK         0.0273 
     46 CB         25.0452    1.1703   -9.2541 C.3       7 UNK        -0.1935 
     47 C          27.0069    2.7401   -9.4444 C.2       7 UNK         0.5018 
     48 O          27.0722    3.0402  -10.6371 O.2       7 UNK        -0.5186 
     49 N          28.0726    2.5657   -8.6467 N.am      8 UNK        -0.4240 
     50 CA         29.4898    2.5916   -9.0167 C.3       8 UNK         0.0235 
     51 CB         29.9289    4.0127   -9.4277 C.3       8 UNK        -0.2000 
     52 C          29.8065    1.5222  -10.0763 C.2       8 UNK         0.4941 
     53 O          30.2674    1.8524  -11.1711 O.2       8 UNK        -0.5273 
     54 N          29.5063    0.2590   -9.7353 N.am      9 UNK        -0.4262 
     55 CA         29.6056   -0.9146  -10.6140 C.3       9 UNK         0.0264 
     56 CB         29.1400   -2.1579   -9.8383 C.3       9 UNK        -0.1955 
     57 C          31.0016   -1.1524  -11.2237 C.2       9 UNK         0.5031 
     58 O          31.0932   -1.6206  -12.3593 O.2       9 UNK        -0.5390 
     59 N          32.0437   -0.8073  -10.4621 N.am      10 UNK        -0.4204 
     60 CA         33.4658   -0.8222  -10.8104 C.3       10 UNK         0.0237 
     61 CB         33.9691   -2.2294  -11.2018 C.3       10 UNK        -0.1985 
     62 C          34.1925   -0.2854   -9.5779 C.2       10 UNK         0.4970 
     63 O          34.7819    0.7943   -9.6180 O.2       10 UNK        -0.4914 
     64 N          34.0170   -1.0192   -8.4752 N.am      11 UNK        -0.4285 
     65 CA         34.0952   -0.5368   -7.0938 C.3       11 UNK         0.1007 
     66 C          33.0265    0.5541   -6.7903 C.2       11 UNK         0.5703 
     67 N          33.2219    1.3388   -5.7400 N.am      11 UNK        -0.7361 
     68 O          32.0157    0.6759   -7.4815 O.2       11 UNK        -0.4986 
     69 C69        34.0206   -1.7232   -6.0863 C.3       12 UNK        -0.0947 
     70 S70        32.9060   -3.0973   -6.5707 S.3       12 UNK        -0.2240 
     71 C71        31.2678   -2.5268   -6.0269 C.3       12 UNK         0.0194 
     72 H72        24.3865   -4.9465   -5.6619 H         1 UNK         0.0906 
     73 H73        25.5354   -6.2158   -5.2319 H         1 UNK         0.0906 
     74 H74        23.8310   -6.3841   -4.8017 H         1 UNK         0.0906 
     75 H75        26.7645   -5.7664   -3.3807 H         1 UNK         0.3140 
     76 H76        25.6581   -4.7052   -1.0015 H         1 UNK         0.1085 
     77 H77        27.4148   -6.0215   -0.4427 H         1 UNK         0.0836 
     78 H78        28.2203   -4.4934   -0.3692 H         1 UNK         0.0836 
     79 H79        31.3396   -5.7087   -1.9613 H         1 UNK         0.0731 
     80 H80        30.5228   -4.9178   -0.6418 H         1 UNK         0.0731 
     81 H81        30.8025   -4.6439   -4.3911 H         1 UNK         0.1312 
     82 H82        31.4756   -0.4202   -4.3196 H         1 UNK         0.1406 
     83 H83        30.6886   -2.5267   -0.6649 H         1 UNK         0.1631 
     84 H84        32.2256    0.1468   -1.3503 H         1 UNK         0.0717 
     85 H85        30.6437   -0.1233   -0.6580 H         1 UNK         0.0717 
     86 H86        28.6721   -0.0504   -2.4801 H         1 UNK         0.0934 
     87 H87        28.1339    1.5907   -2.3972 H         1 UNK         0.0934 
     88 H88        29.6056    0.8154   -4.9391 H         1 UNK         0.0739 
     89 H89        27.4295   -0.8059   -4.1374 H         1 UNK         0.3093 
     90 H90        26.2499   -1.6731   -7.3564 H         1 UNK         0.0818 
     91 H91        28.1377   -3.2401   -7.0104 H         1 UNK         0.0819 
     92 H92        27.8055   -3.3248   -5.2875 H         1 UNK         0.0819 
     93 H93        26.6439   -3.9655   -6.4508 H         1 UNK         0.0819 
     94 H94        25.5662   -2.3654   -4.6234 H         1 UNK         0.3041 
     95 H95        23.2379    0.2995   -4.1502 H         1 UNK         0.0784 
     96 H96        21.8810   -1.3047   -5.4098 H         1 UNK         0.0793 
     97 H97        22.7241   -2.6692   -4.7010 H         1 UNK         0.0793 
     98 H98        21.7084   -1.6370   -3.6940 H         1 UNK         0.0793 
     99 H99        24.0350   -1.9880   -2.5796 H         1 UNK         0.3024 
    100 H100       26.7908   -0.3877   -0.9929 H         1 UNK         0.1171 
    101 H101       25.5103   -0.6059    1.1177 H         1 UNK         0.0786 
    102 H102       24.9140    0.7613    0.1933 H         1 UNK         0.0786 
    103 H103       23.9962   -0.7379    0.2208 H         1 UNK         0.0786 
    104 H104       25.4128   -2.7360   -0.2529 H         1 UNK         0.2977 
    105 H105       26.2230    1.7265   -4.1141 H         1 UNK         0.3127 
    106 H106       26.4230    4.4613   -4.7381 H         1 UNK         0.0770 
    107 H107       23.9731    2.6183   -4.7944 H         1 UNK         0.0814 
    108 H108       23.9240    4.3756   -4.7430 H         1 UNK         0.0814 
    109 H109       24.5873    3.4800   -3.3849 H         1 UNK         0.0814 
    110 H110       25.4752    1.7161   -6.8540 H         1 UNK         0.2983 
    111 H111       24.9642    3.3164   -9.1885 H         1 UNK         0.0947 
    112 H112       25.6601    0.3415   -8.9006 H         1 UNK         0.0806 
    113 H113       24.9952    1.0996  -10.3415 H         1 UNK         0.0806 
    114 H114       24.0342    1.0240   -8.8735 H         1 UNK         0.0806 
    115 H115       27.8918    2.3092   -7.6841 H         1 UNK         0.3000 
    116 H116       30.0449    2.3214   -8.1174 H         1 UNK         0.0850 
    117 H117       31.0023    4.0459   -9.6180 H         1 UNK         0.0810 
    118 H118       29.7160    4.7340   -8.6387 H         1 UNK         0.0810 
    119 H119       29.4270    4.3493  -10.3352 H         1 UNK         0.0810 
    120 H120       29.1138    0.1013   -8.8082 H         1 UNK         0.3040 
    121 H121       28.9154   -0.7505  -11.4437 H         1 UNK         0.0766 
    122 H122       29.1795   -3.0495  -10.4657 H         1 UNK         0.0812 
    123 H123       28.1108   -2.0487   -9.4955 H         1 UNK         0.0812 
    124 H124       29.7656   -2.3439   -8.9643 H         1 UNK         0.0812 
    125 H125       31.8346   -0.3875   -9.5620 H         1 UNK         0.3205 
    126 H126       33.6314   -0.1325  -11.6402 H         1 UNK         0.0754 
    127 H127       35.0560   -2.2433  -11.2933 H         1 UNK         0.0769 
    128 H128       33.5680   -2.5419  -12.1657 H         1 UNK         0.0769 
    129 H129       33.6909   -2.9865  -10.4680 H         1 UNK         0.0769 
    130 H130       33.5320   -1.8999   -8.5691 H         1 UNK         0.2981 
    131 H131       35.0683   -0.0555   -6.9796 H         1 UNK         0.0541 
    132 H132       32.5376    2.0474   -5.5293 H         1 UNK         0.3459 
    133 H133       34.0456    1.2517   -5.1659 H         1 UNK         0.3459 
    134 H134       35.0160   -2.1617   -6.0051 H         1 UNK         0.0612 
    135 H135       33.7821   -1.3889   -5.0757 H         1 UNK         0.0612 
    136 H136       30.5177   -3.1962   -6.4490 H         1 UNK         0.0624 
    137 H137       31.0487   -1.5421   -6.4382 H         1 UNK         0.0624 
@<TRIPOS>BOND
     1    1    2 1    
     2    1   72 1    
     3    1   73 1    
     4    1   74 1    
     5    2    3 2    
     6    2    4 am   BACKBONE|DICT|INTERRES
     7    4    5 1    
     8    4   75 1    
     9    5    6 1    
    10    5   35 1    
    11    5   76 1    
    12    6    7 1    
    13    6   77 1    
    14    6   78 1    
    15    7    8 1    
    16    8    9 1    
    17    8   79 1    
    18    8   80 1    
    19    9   10 ar   
    20    9   14 ar   
    21   10   11 ar   
    22   10   81 1    
    23   11   12 ar   
    24   11   71 1    
    25   12   13 ar   
    26   12   82 1    
    27   13   14 ar   
    28   13   15 1    
    29   14   83 1    
    30   15   16 1    
    31   15   84 1    
    32   15   85 1    
    33   16   17 1    
    34   17   18 1    
    35   17   86 1    
    36   17   87 1    
    37   18   19 1    
    38   18   37 1    
    39   18   88 1    
    40   19   20 am   BACKBONE|DICT|INTERRES
    41   19   89 1    
    42   20   21 2    
    43   20   22 1    
    44   22   23 1    
    45   22   24 1    
    46   22   90 1    
    47   23   91 1    
    48   23   92 1    
    49   23   93 1    
    50   24   25 am   BACKBONE|DICT|INTERRES
    51   24   94 1    
    52   25   26 2    
    53   25   27 1    
    54   27   28 1    
    55   27   29 1    
    56   27   95 1    
    57   28   96 1    
    58   28   97 1    
    59   28   98 1    
    60   29   30 am   BACKBONE|DICT|INTERRES
    61   29   99 1    
    62   30   31 2    
    63   30   32 1    
    64   32   33 1    
    65   32   34 1    
    66   32  100 1    
    67   33  101 1    
    68   33  102 1    
    69   33  103 1    
    70   34   35 am   BACKBONE|DICT|INTERRES
    71   34  104 1    
    72   35   36 2    
    73   37   38 2    
    74   37   39 am   BACKBONE|DICT|INTERRES
    75   39   40 1    
    76   39  105 1    
    77   40   41 1    
    78   40   42 1    
    79   40  106 1    
    80   41  107 1    
    81   41  108 1    
    82   41  109 1    
    83   42   43 2    
    84   42   44 am   BACKBONE|DICT|INTERRES
    85   44   45 1    
    86   44  110 1    
    87   45   46 1    
    88   45   47 1    
    89   45  111 1    
    90   46  112 1    
    91   46  113 1    
    92   46  114 1    
    93   47   48 2    
    94   47   49 am   BACKBONE|DICT|INTERRES
    95   49   50 1    
    96   49  115 1    
    97   50   51 1    
    98   50   52 1    
    99   50  116 1    
   100   51  117 1    
   101   51  118 1    
   102   51  119 1    
   103   52   53 2    
   104   52   54 am   BACKBONE|DICT|INTERRES
   105   54   55 1    
   106   54  120 1    
   107   55   56 1    
   108   55   57 1    
   109   55  121 1    
   110   56  122 1    
   111   56  123 1    
   112   56  124 1    
   113   57   58 2    
   114   57   59 am   BACKBONE|DICT|INTERRES
   115   59   60 1    
   116   59  125 1    
   117   60   61 1    
   118   60   62 1    
   119   60  126 1    
   120   61  127 1    
   121   61  128 1    
   122   61  129 1    
   123   62   63 2    
   124   62   64 am   BACKBONE|DICT|INTERRES
   125   64   65 1    
   126   64  130 1    
   127   65   66 1    
   128   65   69 1    
   129   65  131 1    
   130   66   67 am   BACKBONE|DICT|INTERRES
   131   66   68 2    
   132   67  132 1    
   133   67  133 1    
   134   69   70 1    
   135   69  134 1    
   136   69  135 1    
   137   70   71 1    
   138   71  136 1    
   139   71  137 1    
@<TRIPOS>SUBSTRUCTURE
     1 UNK         1 GROUP             0       ****    0 ROOT    
