@<TRIPOS>MOLECULE
3R137
137   139    1
SMALL
USER_CHARGES


@<TRIPOS>ATOM
      1 CA         27.0474   -6.7150    0.5644 C.3       0 UNK        -0.2020 
      2 C          26.8757   -5.2246    0.8164 C.2       0 UNK         0.4855 
      3 O          26.0753   -4.8354    1.6671 O.2       0 UNK        -0.5197 
      4 N          27.6230   -4.3887    0.0837 N.am      1 UNK        -0.4892 
      5 CA         27.5828   -2.9226    0.1816 C.3       1 UNK         0.0835 
      6 C6         28.8220   -2.2664   -0.4734 C.3       12 UNK        -0.0855 
      7 S7         30.3821   -2.6810    0.3874 S.3       12 UNK        -0.2931 
      8 C8         31.0599   -4.0750   -0.5780 C.3       12 UNK         0.0378 
      9 C9         31.2717   -3.7200   -2.0424 C.ar      12 UNK        -0.0802 
     10 C10        32.2934   -2.8391   -2.4138 C.ar      12 UNK        -0.0944 
     11 C11        32.4577   -2.4725   -3.7527 C.ar      12 UNK        -0.0787 
     12 C12        31.6063   -3.0091   -4.7198 C.ar      12 UNK        -0.0862 
     13 C13        30.5757   -3.8806   -4.3618 C.ar      12 UNK        -0.0733 
     14 C14        30.4252   -4.2492   -3.0229 C.ar      12 UNK        -0.0832 
     15 C15        29.5983   -4.3837   -5.4155 C.3       12 UNK         0.0240 
     16 S16        27.9477   -3.6315   -5.2192 S.3       12 UNK        -0.2522 
     17 C17        28.3020   -1.8502   -5.4228 C.3       12 UNK        -0.0967 
     18 CA         27.5509   -1.2167   -6.6170 C.3       5 UNK         0.0660 
     19 N          26.0961   -1.3462   -6.4941 N.am      5 UNK        -0.4015 
     20 C          25.2263   -1.0943   -7.4841 C.2       4 UNK         0.4946 
     21 O          25.5624   -0.7478   -8.6155 O.2       4 UNK        -0.5353 
     22 CA         23.7266   -1.2018   -7.1544 C.3       4 UNK         0.0277 
     23 CB         23.2329   -2.6410   -7.3705 C.3       4 UNK        -0.1981 
     24 N          23.3982   -0.7728   -5.7937 N.am      4 UNK        -0.4209 
     25 C          23.6370    0.4472   -5.2905 C.2       3 UNK         0.4942 
     26 O          24.0872    1.3817   -5.9523 O.2       3 UNK        -0.5208 
     27 CA         23.3881    0.6455   -3.7842 C.3       3 UNK         0.0250 
     28 CB         22.0159    1.2961   -3.5494 C.3       3 UNK        -0.1990 
     29 N          23.4877   -0.5882   -2.9921 N.am      3 UNK        -0.4232 
     30 C          24.5858   -1.3517   -2.8920 C.2       2 UNK         0.4993 
     31 O          25.6403   -1.1162   -3.4869 O.2       2 UNK        -0.5286 
     32 CA         24.4468   -2.6370   -2.0607 C.3       2 UNK         0.0209 
     33 CB         23.9941   -3.7988   -2.9612 C.3       2 UNK        -0.1931 
     34 N          25.6959   -3.0161   -1.3985 N.am      2 UNK        -0.4546 
     35 C          26.2809   -2.3326   -0.4040 C.2       1 UNK         0.5154 
     36 O          25.8205   -1.2935    0.0728 O.2       1 UNK        -0.5181 
     37 C          27.9669    0.2571   -6.7886 C.2       5 UNK         0.5014 
     38 O          28.8423    0.5515   -7.6048 O.2       5 UNK        -0.5248 
     39 N          27.3160    1.1562   -6.0352 N.am      6 UNK        -0.4434 
     40 CA         27.5080    2.6036   -6.1274 C.3       6 UNK         0.0363 
     41 CB         26.8577    3.2985   -4.9203 C.3       6 UNK        -0.1936 
     42 C          26.9695    3.1700   -7.4500 C.2       6 UNK         0.5081 
     43 O          27.6523    3.9778   -8.0780 O.2       6 UNK        -0.5248 
     44 N          25.7850    2.7047   -7.8741 N.am      7 UNK        -0.4718 
     45 CA         25.1551    3.0571   -9.1513 C.3       7 UNK         0.0273 
     46 CB         23.7372    2.4680   -9.2070 C.3       7 UNK        -0.1935 
     47 C          25.9777    2.6123  -10.3736 C.2       7 UNK         0.5018 
     48 O          26.0762    3.3660  -11.3424 O.2       7 UNK        -0.5186 
     49 N          26.5810    1.4179  -10.2930 N.am      8 UNK        -0.4240 
     50 CA         27.5134    0.8837  -11.2898 C.3       8 UNK         0.0235 
     51 CB         27.6569   -0.6327  -11.0757 C.3       8 UNK        -0.2000 
     52 C          28.9021    1.5516  -11.2644 C.2       8 UNK         0.4941 
     53 O          29.6663    1.3536  -12.2099 O.2       8 UNK        -0.5273 
     54 N          29.2130    2.2964  -10.1909 N.am      9 UNK        -0.4262 
     55 CA         30.5069    2.9120   -9.8714 C.3       9 UNK         0.0264 
     56 CB         30.8449    4.0417  -10.8672 C.3       9 UNK        -0.1955 
     57 C          31.6284    1.8636   -9.7322 C.2       9 UNK         0.5031 
     58 O          32.7233    2.0450  -10.2717 O.2       9 UNK        -0.5390 
     59 N          31.3198    0.7669   -9.0276 N.am      10 UNK        -0.4204 
     60 CA         32.2254   -0.3557   -8.7886 C.3       10 UNK         0.0237 
     61 CB         31.4093   -1.5347   -8.2401 C.3       10 UNK        -0.1985 
     62 C          33.3815    0.0128   -7.8404 C.2       10 UNK         0.4970 
     63 O          33.2489    0.9313   -7.0282 O.2       10 UNK        -0.4914 
     64 N          34.4884   -0.7288   -7.9709 N.am      11 UNK        -0.4285 
     65 CA         35.7723   -0.5384   -7.2669 C.3       11 UNK         0.1007 
     66 C          36.5752    0.7257   -7.7059 C.2       11 UNK         0.5703 
     67 N          36.1717    1.4508   -8.7431 N.am      11 UNK        -0.7361 
     68 O          37.6086    1.0379   -7.1183 O.2       11 UNK        -0.4986 
     69 C69        35.6826   -0.6609   -5.7156 C.3       12 UNK        -0.0947 
     70 S70        34.8448   -2.1776   -5.1401 S.3       12 UNK        -0.2240 
     71 C71        33.5007   -1.4441   -4.1592 C.3       12 UNK         0.0194 
     72 H72        26.1010   -7.1533    0.2488 H         1 UNK         0.0906 
     73 H73        27.3662   -7.2153    1.4784 H         1 UNK         0.0906 
     74 H74        27.7889   -6.9172   -0.2083 H         1 UNK         0.0906 
     75 H75        28.2724   -4.7654   -0.5893 H         1 UNK         0.3140 
     76 H76        27.5877   -2.6613    1.2427 H         1 UNK         0.1085 
     77 H77        28.7302   -1.1787   -0.4389 H         1 UNK         0.0836 
     78 H78        28.8822   -2.5170   -1.5328 H         1 UNK         0.0836 
     79 H79        32.0152   -4.3699   -0.1414 H         1 UNK         0.0731 
     80 H80        30.4050   -4.9408   -0.4762 H         1 UNK         0.0731 
     81 H81        32.9370   -2.4162   -1.6543 H         1 UNK         0.1312 
     82 H82        31.7348   -2.7217   -5.7510 H         1 UNK         0.1406 
     83 H83        29.6234   -4.9198   -2.7464 H         1 UNK         0.1631 
     84 H84        29.5068   -5.4679   -5.3368 H         1 UNK         0.0717 
     85 H85        29.9672   -4.1780   -6.4218 H         1 UNK         0.0717 
     86 H86        28.0451   -1.3486   -4.4882 H         1 UNK         0.0934 
     87 H87        29.3739   -1.7028   -5.5458 H         1 UNK         0.0934 
     88 H88        27.8541   -1.7441   -7.5243 H         1 UNK         0.0739 
     89 H89        25.7512   -1.5802   -5.5701 H         1 UNK         0.3093 
     90 H90        23.1891   -0.5481   -7.8438 H         1 UNK         0.0818 
     91 H91        23.4478   -2.9774   -8.3859 H         1 UNK         0.0819 
     92 H92        23.7139   -3.3419   -6.6868 H         1 UNK         0.0819 
     93 H93        22.1547   -2.7174   -7.2282 H         1 UNK         0.0819 
     94 H94        23.0136   -1.4720   -5.1764 H         1 UNK         0.3041 
     95 H95        24.1578    1.3298   -3.4208 H         1 UNK         0.0784 
     96 H96        21.9260    2.2287   -4.1087 H         1 UNK         0.0793 
     97 H97        21.1997    0.6460   -3.8671 H         1 UNK         0.0793 
     98 H98        21.8650    1.5373   -2.4970 H         1 UNK         0.0793 
     99 H99        22.6570   -0.8621   -2.4864 H         1 UNK         0.3024 
    100 H100       23.6948   -2.4740   -1.2852 H         1 UNK         0.1171 
    101 H101       23.0411   -3.5768   -3.4433 H         1 UNK         0.0786 
    102 H102       24.7196   -4.0031   -3.7505 H         1 UNK         0.0786 
    103 H103       23.8564   -4.7155   -2.3874 H         1 UNK         0.0786 
    104 H104       26.1565   -3.8467   -1.7385 H         1 UNK         0.2977 
    105 H105       26.5916    0.8304   -5.4106 H         1 UNK         0.3127 
    106 H106       28.5816    2.8026   -6.0935 H         1 UNK         0.0770 
    107 H107       25.7788    3.1452   -4.8919 H         1 UNK         0.0814 
    108 H108       27.0308    4.3749   -4.9543 H         1 UNK         0.0814 
    109 H109       27.2735    2.9338   -3.9810 H         1 UNK         0.0814 
    110 H110       25.2598    2.0855   -7.2601 H         1 UNK         0.2983 
    111 H111       25.0746    4.1457   -9.1879 H         1 UNK         0.0947 
    112 H112       23.7536    1.3783   -9.1863 H         1 UNK         0.0806 
    113 H113       23.2256    2.7690  -10.1221 H         1 UNK         0.0806 
    114 H114       23.1311    2.8098   -8.3677 H         1 UNK         0.0806 
    115 H115       26.3757    0.8189   -9.4975 H         1 UNK         0.3000 
    116 H116       27.0891    1.0517  -12.2819 H         1 UNK         0.0850 
    117 H117       28.3210   -1.0747  -11.8197 H         1 UNK         0.0810 
    118 H118       26.6947   -1.1381  -11.1605 H         1 UNK         0.0810 
    119 H119       28.0695   -0.8613  -10.0920 H         1 UNK         0.0810 
    120 H120       28.5061    2.3968   -9.4730 H         1 UNK         0.3040 
    121 H121       30.3915    3.3656   -8.8858 H         1 UNK         0.0766 
    122 H122       31.0229    3.6582  -11.8723 H         1 UNK         0.0812 
    123 H123       31.7452    4.5749  -10.5597 H         1 UNK         0.0812 
    124 H124       30.0385    4.7727  -10.9240 H         1 UNK         0.0812 
    125 H125       30.4075    0.7190   -8.5755 H         1 UNK         0.3205 
    126 H126       32.6509   -0.6486   -9.7510 H         1 UNK         0.0754 
    127 H127       32.0394   -2.4090   -8.0728 H         1 UNK         0.0769 
    128 H128       30.6235   -1.8305   -8.9358 H         1 UNK         0.0769 
    129 H129       30.9338   -1.2747   -7.2952 H         1 UNK         0.0769 
    130 H130       34.4936   -1.4624   -8.6646 H         1 UNK         0.2981 
    131 H131       36.3895   -1.3711   -7.6056 H         1 UNK         0.0541 
    132 H132       35.3202    1.2238   -9.2324 H         1 UNK         0.3459 
    133 H133       36.7116    2.2556   -9.0191 H         1 UNK         0.3459 
    134 H134       35.1905    0.2176   -5.2956 H         1 UNK         0.0612 
    135 H135       36.6840   -0.6714   -5.2820 H         1 UNK         0.0612 
    136 H136       33.9267   -0.9549   -3.2819 H         1 UNK         0.0624 
    137 H137       33.0103   -0.6629   -4.7418 H         1 UNK         0.0624 
@<TRIPOS>BOND
     1    1    2 1    
     2    1   72 1    
     3    1   73 1    
     4    1   74 1    
     5    2    3 2    
     6    2    4 am   BACKBONE|DICT|INTERRES
     7    4    5 1    
     8    4   75 1    
     9    5    6 1    
    10    5   35 1    
    11    5   76 1    
    12    6    7 1    
    13    6   77 1    
    14    6   78 1    
    15    7    8 1    
    16    8    9 1    
    17    8   79 1    
    18    8   80 1    
    19    9   10 ar   
    20    9   14 ar   
    21   10   11 ar   
    22   10   81 1    
    23   11   12 ar   
    24   11   71 1    
    25   12   13 ar   
    26   12   82 1    
    27   13   14 ar   
    28   13   15 1    
    29   14   83 1    
    30   15   16 1    
    31   15   84 1    
    32   15   85 1    
    33   16   17 1    
    34   17   18 1    
    35   17   86 1    
    36   17   87 1    
    37   18   19 1    
    38   18   37 1    
    39   18   88 1    
    40   19   20 am   BACKBONE|DICT|INTERRES
    41   19   89 1    
    42   20   21 2    
    43   20   22 1    
    44   22   23 1    
    45   22   24 1    
    46   22   90 1    
    47   23   91 1    
    48   23   92 1    
    49   23   93 1    
    50   24   25 am   BACKBONE|DICT|INTERRES
    51   24   94 1    
    52   25   26 2    
    53   25   27 1    
    54   27   28 1    
    55   27   29 1    
    56   27   95 1    
    57   28   96 1    
    58   28   97 1    
    59   28   98 1    
    60   29   30 am   BACKBONE|DICT|INTERRES
    61   29   99 1    
    62   30   31 2    
    63   30   32 1    
    64   32   33 1    
    65   32   34 1    
    66   32  100 1    
    67   33  101 1    
    68   33  102 1    
    69   33  103 1    
    70   34   35 am   BACKBONE|DICT|INTERRES
    71   34  104 1    
    72   35   36 2    
    73   37   38 2    
    74   37   39 am   BACKBONE|DICT|INTERRES
    75   39   40 1    
    76   39  105 1    
    77   40   41 1    
    78   40   42 1    
    79   40  106 1    
    80   41  107 1    
    81   41  108 1    
    82   41  109 1    
    83   42   43 2    
    84   42   44 am   BACKBONE|DICT|INTERRES
    85   44   45 1    
    86   44  110 1    
    87   45   46 1    
    88   45   47 1    
    89   45  111 1    
    90   46  112 1    
    91   46  113 1    
    92   46  114 1    
    93   47   48 2    
    94   47   49 am   BACKBONE|DICT|INTERRES
    95   49   50 1    
    96   49  115 1    
    97   50   51 1    
    98   50   52 1    
    99   50  116 1    
   100   51  117 1    
   101   51  118 1    
   102   51  119 1    
   103   52   53 2    
   104   52   54 am   BACKBONE|DICT|INTERRES
   105   54   55 1    
   106   54  120 1    
   107   55   56 1    
   108   55   57 1    
   109   55  121 1    
   110   56  122 1    
   111   56  123 1    
   112   56  124 1    
   113   57   58 2    
   114   57   59 am   BACKBONE|DICT|INTERRES
   115   59   60 1    
   116   59  125 1    
   117   60   61 1    
   118   60   62 1    
   119   60  126 1    
   120   61  127 1    
   121   61  128 1    
   122   61  129 1    
   123   62   63 2    
   124   62   64 am   BACKBONE|DICT|INTERRES
   125   64   65 1    
   126   64  130 1    
   127   65   66 1    
   128   65   69 1    
   129   65  131 1    
   130   66   67 am   BACKBONE|DICT|INTERRES
   131   66   68 2    
   132   67  132 1    
   133   67  133 1    
   134   69   70 1    
   135   69  134 1    
   136   69  135 1    
   137   70   71 1    
   138   71  136 1    
   139   71  137 1    
@<TRIPOS>SUBSTRUCTURE
     1 UNK         1 GROUP             0       ****    0 ROOT    
