@<TRIPOS>MOLECULE
3R137
137   139    1
SMALL
USER_CHARGES


@<TRIPOS>ATOM
      1 CA         30.4206    0.7626   -0.9645 C.3       0 UNK        -0.2020 
      2 C          29.5730   -0.3839   -1.4939 C.2       0 UNK         0.4855 
      3 O          29.1510   -0.3454   -2.6486 O.2       0 UNK        -0.5197 
      4 N          29.3287   -1.4027   -0.6597 N.am      1 UNK        -0.4892 
      5 CA         28.5276   -2.5831   -0.9985 C.3       1 UNK         0.0835 
      6 C6         28.6719   -3.7218    0.0469 C.3       12 UNK        -0.0855 
      7 S7         30.3948   -4.1680    0.4514 S.3       12 UNK        -0.2931 
      8 C8         30.7552   -5.4580   -0.7837 C.3       12 UNK         0.0378 
      9 C9         30.9504   -4.8663   -2.1715 C.ar      12 UNK        -0.0802 
     10 C10        32.0127   -3.9882   -2.4073 C.ar      12 UNK        -0.0944 
     11 C11        32.1946   -3.4199   -3.6688 C.ar      12 UNK        -0.0787 
     12 C12        31.3170   -3.7485   -4.7042 C.ar      12 UNK        -0.0862 
     13 C13        30.2434   -4.6141   -4.4807 C.ar      12 UNK        -0.0733 
     14 C14        30.0706   -5.1812   -3.2136 C.ar      12 UNK        -0.0832 
     15 C15        29.2667   -4.9225   -5.6078 C.3       12 UNK         0.0240 
     16 S16        27.6599   -4.0973   -5.3656 S.3       12 UNK        -0.2522 
     17 C17        28.1044   -2.3285   -5.4517 C.3       12 UNK        -0.0967 
     18 CA         27.4343   -1.5740   -6.6280 C.3       5 UNK         0.0660 
     19 N          25.9734   -1.7159   -6.6435 N.am      5 UNK        -0.4015 
     20 C          25.1646   -1.2892   -7.6252 C.2       4 UNK         0.4946 
     21 O          25.5619   -0.7450   -8.6543 O.2       4 UNK        -0.5353 
     22 CA         23.6513   -1.4659   -7.4111 C.3       4 UNK         0.0277 
     23 CB         23.2186   -2.8978   -7.7645 C.3       4 UNK        -0.1981 
     24 N          23.2272   -1.1457   -6.0464 N.am      4 UNK        -0.4209 
     25 C          23.2999    0.0741   -5.4926 C.2       3 UNK         0.4942 
     26 O          23.6692    1.0798   -6.0951 O.2       3 UNK        -0.5208 
     27 CA         22.9650    0.1791   -3.9939 C.3       3 UNK         0.0250 
     28 CB         21.4567    0.3894   -3.7890 C.3       3 UNK        -0.1990 
     29 N          23.4150   -0.9799   -3.2132 N.am      3 UNK        -0.4232 
     30 C          24.6848   -1.4047   -3.1521 C.2       2 UNK         0.4993 
     31 O          25.6146   -0.8524   -3.7449 O.2       2 UNK        -0.5286 
     32 CA         24.9303   -2.7040   -2.3678 C.3       2 UNK         0.0209 
     33 CB         24.4110   -3.9170   -3.1599 C.3       2 UNK        -0.1931 
     34 N          26.3508   -2.9089   -2.0774 N.am      2 UNK        -0.4546 
     35 C          27.0370   -2.2208   -1.1569 C.2       1 UNK         0.5154 
     36 O          26.5253   -1.3844   -0.4060 O.2       1 UNK        -0.5181 
     37 C          27.8423   -0.0900   -6.5955 C.2       5 UNK         0.5014 
     38 O          28.7266    0.3170   -7.3529 O.2       5 UNK        -0.5248 
     39 N          27.1658    0.6855   -5.7359 N.am      6 UNK        -0.4434 
     40 CA         27.3307    2.1311   -5.6036 C.3       6 UNK         0.0363 
     41 CB         26.5555    2.6266   -4.3729 C.3       6 UNK        -0.1936 
     42 C          26.9076    2.8933   -6.8703 C.2       6 UNK         0.5081 
     43 O          27.6562    3.7578   -7.3244 O.2       6 UNK        -0.5248 
     44 N          25.7412    2.5470   -7.4361 N.am      7 UNK        -0.4718 
     45 CA         25.2019    3.1389   -8.6658 C.3       7 UNK         0.0273 
     46 CB         23.7600    2.6570   -8.8901 C.3       7 UNK        -0.1935 
     47 C          26.0626    2.8529   -9.9064 C.2       7 UNK         0.5018 
     48 O          26.2525    3.7506  -10.7279 O.2       7 UNK        -0.5186 
     49 N          26.5873    1.6238  -10.0100 N.am      8 UNK        -0.4240 
     50 CA         27.5250    1.2132  -11.0585 C.3       8 UNK         0.0235 
     51 CB         27.5965   -0.3226  -11.0953 C.3       8 UNK        -0.2000 
     52 C          28.9381    1.7980  -10.8821 C.2       8 UNK         0.4941 
     53 O          29.7056    1.7836  -11.8454 O.2       8 UNK        -0.5273 
     54 N          29.2627    2.2629   -9.6642 N.am      9 UNK        -0.4262 
     55 CA         30.5862    2.6832   -9.1895 C.3       9 UNK         0.0264 
     56 CB         31.0473    3.9760   -9.8949 C.3       9 UNK        -0.1955 
     57 C          31.6026    1.5302   -9.2929 C.2       9 UNK         0.5031 
     58 O          32.6862    1.7004   -9.8553 O.2       9 UNK        -0.5390 
     59 N          31.1975    0.3574   -8.7855 N.am      10 UNK        -0.4204 
     60 CA         31.9245   -0.9075   -8.9115 C.3       10 UNK         0.0237 
     61 CB         30.9993   -2.0593   -8.4845 C.3       10 UNK        -0.1985 
     62 C          33.2463   -0.9555   -8.1266 C.2       10 UNK         0.4970 
     63 O          34.1681   -1.6537   -8.5509 O.2       10 UNK        -0.4914 
     64 N          33.3100   -0.2427   -6.9967 N.am      11 UNK        -0.4285 
     65 CA         34.4820   -0.1900   -6.1133 C.3       11 UNK         0.1007 
     66 C          35.5817    0.7547   -6.6645 C.2       11 UNK         0.5703 
     67 N          36.8486    0.3735   -6.5487 N.am      11 UNK        -0.7361 
     68 O          35.2992    1.8482   -7.1530 O.2       11 UNK        -0.4986 
     69 C69        34.0995    0.1913   -4.6568 C.3       12 UNK        -0.0947 
     70 S70        32.6762   -0.7362   -3.9892 S.3       12 UNK        -0.2240 
     71 C71        33.3222   -2.4346   -3.9192 C.3       12 UNK         0.0194 
     72 H72        29.8553    1.6932   -1.0011 H         1 UNK         0.0906 
     73 H73        31.3134    0.8811   -1.5787 H         1 UNK         0.0906 
     74 H74        30.7368    0.5959    0.0651 H         1 UNK         0.0906 
     75 H75        29.6954   -1.3842    0.2805 H         1 UNK         0.3140 
     76 H76        28.8891   -2.9439   -1.9632 H         1 UNK         0.1085 
     77 H77        28.1472   -4.6175   -0.2906 H         1 UNK         0.0836 
     78 H78        28.1919   -3.4339    0.9845 H         1 UNK         0.0836 
     79 H79        31.6685   -5.9782   -0.4915 H         1 UNK         0.0731 
     80 H80        29.9617   -6.2065   -0.7778 H         1 UNK         0.0731 
     81 H81        32.6851   -3.7328   -1.5996 H         1 UNK         0.1312 
     82 H82        31.4604   -3.3050   -5.6790 H         1 UNK         0.1406 
     83 H83        29.2411   -5.8529   -3.0390 H         1 UNK         0.1631 
     84 H84        29.1056   -6.0000   -5.6606 H         1 UNK         0.0717 
     85 H85        29.6785   -4.6273   -6.5742 H         1 UNK         0.0717 
     86 H86        27.8379   -1.8773   -4.4952 H         1 UNK         0.0934 
     87 H87        29.1870   -2.2241   -5.5203 H         1 UNK         0.0934 
     88 H88        27.8107   -1.9968   -7.5619 H         1 UNK         0.0739 
     89 H89        25.5641   -2.1025   -5.8067 H         1 UNK         0.3093 
     90 H90        23.1402   -0.7784   -8.0885 H         1 UNK         0.0818 
     91 H91        23.5093   -3.1505   -8.7853 H         1 UNK         0.0819 
     92 H92        23.6749   -3.6364   -7.1041 H         1 UNK         0.0819 
     93 H93        22.1364   -3.0126   -7.7008 H         1 UNK         0.0819 
     94 H94        22.8988   -1.9107   -5.4760 H         1 UNK         0.3041 
     95 H95        23.4876    1.0555   -3.6055 H         1 UNK         0.0784 
     96 H96        21.1057    1.2584   -4.3476 H         1 UNK         0.0793 
     97 H97        20.8770   -0.4705   -4.1265 H         1 UNK         0.0793 
     98 H98        21.2192    0.5647   -2.7397 H         1 UNK         0.0793 
     99 H99        22.7035   -1.4875   -2.7066 H         1 UNK         0.3024 
    100 H100       24.3894   -2.6395   -1.4207 H         1 UNK         0.1171 
    101 H101       23.3359   -3.8499   -3.3295 H         1 UNK         0.0786 
    102 H102       24.8893   -4.0008   -4.1360 H         1 UNK         0.0786 
    103 H103       24.5896   -4.8477   -2.6209 H         1 UNK         0.0786 
    104 H104       26.8419   -3.5550   -2.6782 H         1 UNK         0.2977 
    105 H105       26.4987    0.2390   -5.1105 H         1 UNK         0.3127 
    106 H106       28.3923    2.3258   -5.4367 H         1 UNK         0.0770 
    107 H107       25.4845    2.4466   -4.4696 H         1 UNK         0.0814 
    108 H108       26.6960    3.6985   -4.2292 H         1 UNK         0.0814 
    109 H109       26.8969    2.1279   -3.4652 H         1 UNK         0.0814 
    110 H110       25.1517    1.8605   -6.9696 H         1 UNK         0.2983 
    111 H111       25.1799    4.2220   -8.5274 H         1 UNK         0.0947 
    112 H112       23.7094    1.5720   -8.9881 H         1 UNK         0.0806 
    113 H113       23.3389    3.0887   -9.7989 H         1 UNK         0.0806 
    114 H114       23.1121    2.9486   -8.0634 H         1 UNK         0.0806 
    115 H115       26.3232    0.9137   -9.3305 H         1 UNK         0.3000 
    116 H116       27.1420    1.5627  -12.0196 H         1 UNK         0.0850 
    117 H117       28.2651   -0.6667  -11.8855 H         1 UNK         0.0810 
    118 H118       26.6168   -0.7610  -11.2859 H         1 UNK         0.0810 
    119 H119       27.9673   -0.7290  -10.1531 H         1 UNK         0.0810 
    120 H120       28.5496    2.2150   -8.9471 H         1 UNK         0.3040 
    121 H121       30.4752    2.9060   -8.1271 H         1 UNK         0.0766 
    122 H122       31.2185    3.8207  -10.9604 H         1 UNK         0.0812 
    123 H123       31.9819    4.3399   -9.4662 H         1 UNK         0.0812 
    124 H124       30.3087    4.7700   -9.7856 H         1 UNK         0.0812 
    125 H125       30.2879    0.3223   -8.3247 H         1 UNK         0.3205 
    126 H126       32.1706   -1.0433   -9.9668 H         1 UNK         0.0754 
    127 H127       31.5077   -3.0219   -8.5567 H         1 UNK         0.0769 
    128 H128       30.1143   -2.1118   -9.1193 H         1 UNK         0.0769 
    129 H129       30.6637   -1.9398   -7.4547 H         1 UNK         0.0769 
    130 H130       32.5193    0.3211   -6.7259 H         1 UNK         0.2981 
    131 H131       34.9118   -1.1923   -6.0852 H         1 UNK         0.0541 
    132 H132       37.5755    0.9849   -6.8866 H         1 UNK         0.3459 
    133 H133       37.0939   -0.5150   -6.1381 H         1 UNK         0.3459 
    134 H134       33.8456    1.2514   -4.5969 H         1 UNK         0.0612 
    135 H135       34.9504    0.0442   -3.9895 H         1 UNK         0.0612 
    136 H136       34.0821   -2.5010   -3.1404 H         1 UNK         0.0624 
    137 H137       33.8091   -2.6959   -4.8573 H         1 UNK         0.0624 
@<TRIPOS>BOND
     1    1    2 1    
     2    1   72 1    
     3    1   73 1    
     4    1   74 1    
     5    2    3 2    
     6    2    4 am   BACKBONE|DICT|INTERRES
     7    4    5 1    
     8    4   75 1    
     9    5    6 1    
    10    5   35 1    
    11    5   76 1    
    12    6    7 1    
    13    6   77 1    
    14    6   78 1    
    15    7    8 1    
    16    8    9 1    
    17    8   79 1    
    18    8   80 1    
    19    9   10 ar   
    20    9   14 ar   
    21   10   11 ar   
    22   10   81 1    
    23   11   12 ar   
    24   11   71 1    
    25   12   13 ar   
    26   12   82 1    
    27   13   14 ar   
    28   13   15 1    
    29   14   83 1    
    30   15   16 1    
    31   15   84 1    
    32   15   85 1    
    33   16   17 1    
    34   17   18 1    
    35   17   86 1    
    36   17   87 1    
    37   18   19 1    
    38   18   37 1    
    39   18   88 1    
    40   19   20 am   BACKBONE|DICT|INTERRES
    41   19   89 1    
    42   20   21 2    
    43   20   22 1    
    44   22   23 1    
    45   22   24 1    
    46   22   90 1    
    47   23   91 1    
    48   23   92 1    
    49   23   93 1    
    50   24   25 am   BACKBONE|DICT|INTERRES
    51   24   94 1    
    52   25   26 2    
    53   25   27 1    
    54   27   28 1    
    55   27   29 1    
    56   27   95 1    
    57   28   96 1    
    58   28   97 1    
    59   28   98 1    
    60   29   30 am   BACKBONE|DICT|INTERRES
    61   29   99 1    
    62   30   31 2    
    63   30   32 1    
    64   32   33 1    
    65   32   34 1    
    66   32  100 1    
    67   33  101 1    
    68   33  102 1    
    69   33  103 1    
    70   34   35 am   BACKBONE|DICT|INTERRES
    71   34  104 1    
    72   35   36 2    
    73   37   38 2    
    74   37   39 am   BACKBONE|DICT|INTERRES
    75   39   40 1    
    76   39  105 1    
    77   40   41 1    
    78   40   42 1    
    79   40  106 1    
    80   41  107 1    
    81   41  108 1    
    82   41  109 1    
    83   42   43 2    
    84   42   44 am   BACKBONE|DICT|INTERRES
    85   44   45 1    
    86   44  110 1    
    87   45   46 1    
    88   45   47 1    
    89   45  111 1    
    90   46  112 1    
    91   46  113 1    
    92   46  114 1    
    93   47   48 2    
    94   47   49 am   BACKBONE|DICT|INTERRES
    95   49   50 1    
    96   49  115 1    
    97   50   51 1    
    98   50   52 1    
    99   50  116 1    
   100   51  117 1    
   101   51  118 1    
   102   51  119 1    
   103   52   53 2    
   104   52   54 am   BACKBONE|DICT|INTERRES
   105   54   55 1    
   106   54  120 1    
   107   55   56 1    
   108   55   57 1    
   109   55  121 1    
   110   56  122 1    
   111   56  123 1    
   112   56  124 1    
   113   57   58 2    
   114   57   59 am   BACKBONE|DICT|INTERRES
   115   59   60 1    
   116   59  125 1    
   117   60   61 1    
   118   60   62 1    
   119   60  126 1    
   120   61  127 1    
   121   61  128 1    
   122   61  129 1    
   123   62   63 2    
   124   62   64 am   BACKBONE|DICT|INTERRES
   125   64   65 1    
   126   64  130 1    
   127   65   66 1    
   128   65   69 1    
   129   65  131 1    
   130   66   67 am   BACKBONE|DICT|INTERRES
   131   66   68 2    
   132   67  132 1    
   133   67  133 1    
   134   69   70 1    
   135   69  134 1    
   136   69  135 1    
   137   70   71 1    
   138   71  136 1    
   139   71  137 1    
@<TRIPOS>SUBSTRUCTURE
     1 UNK         1 GROUP             0       ****    0 ROOT    
