@<TRIPOS>MOLECULE
3R137
137   139    1
SMALL
USER_CHARGES


@<TRIPOS>ATOM
      1 CA         26.7192   -4.3576   -7.4164 C.3       0 UNK        -0.2020 
      2 C          26.6075   -4.1069   -5.9211 C.2       0 UNK         0.4855 
      3 O          26.0866   -3.0693   -5.5155 O.2       0 UNK        -0.5197 
      4 N          27.0687   -5.0613   -5.0995 N.am      1 UNK        -0.4892 
      5 CA         27.1324   -4.9906   -3.6280 C.3       1 UNK         0.0835 
      6 C6         28.1739   -3.9559   -3.1234 C.3       12 UNK        -0.0855 
      7 S7         29.8634   -4.3851   -3.6665 S.3       12 UNK        -0.2931 
      8 C8         30.8442   -3.9090   -2.2104 C.3       12 UNK         0.0378 
      9 C9         30.9718   -2.3975   -2.1047 C.ar      12 UNK        -0.0802 
     10 C10        31.9840   -1.7353   -2.8045 C.ar      12 UNK        -0.0944 
     11 C11        32.1131   -0.3455   -2.7265 C.ar      12 UNK        -0.0787 
     12 C12        31.2227    0.3793   -1.9269 C.ar      12 UNK        -0.0862 
     13 C13        30.2061   -0.2720   -1.2175 C.ar      12 UNK        -0.0733 
     14 C14        30.0877   -1.6616   -1.3095 C.ar      12 UNK        -0.0832 
     15 C15        29.2518    0.5199   -0.3292 C.3       12 UNK         0.0240 
     16 S16        27.5869    0.6987   -1.0573 S.3       12 UNK        -0.2522 
     17 C17        27.9546    1.5919   -2.6023 C.3       12 UNK        -0.0967 
     18 CA         27.6237    0.7083   -3.8430 C.3       5 UNK         0.0660 
     19 N          26.1933    0.7459   -4.1762 N.am      5 UNK        -0.4015 
     20 C          25.5341    1.7531   -4.7668 C.2       4 UNK         0.4946 
     21 O          26.0864    2.7874   -5.1510 O.2       4 UNK        -0.5353 
     22 CA         24.0041    1.6080   -4.9386 C.3       4 UNK         0.0277 
     23 CB         23.4291    2.6439   -5.9249 C.3       4 UNK        -0.1981 
     24 N          23.5343    0.2774   -5.3450 N.am      4 UNK        -0.4209 
     25 C          23.4935   -0.8232   -4.5829 C.2       3 UNK         0.4942 
     26 O          23.9754   -0.8751   -3.4491 O.2       3 UNK        -0.5208 
     27 CA         22.7611   -2.0467   -5.1650 C.3       3 UNK         0.0250 
     28 CB         22.8879   -2.1769   -6.6955 C.3       3 UNK        -0.1990 
     29 N          23.2720   -3.2714   -4.5543 N.am      3 UNK        -0.4232 
     30 C          22.6080   -4.0470   -3.6873 C.2       2 UNK         0.4993 
     31 O          21.4598   -3.8141   -3.3047 O.2       2 UNK        -0.5286 
     32 CA         23.3135   -5.3184   -3.1746 C.3       2 UNK         0.0209 
     33 CB         22.5725   -6.5786   -3.6556 C.3       2 UNK        -0.1931 
     34 N          24.7153   -5.4152   -3.5907 N.am      2 UNK        -0.4546 
     35 C          25.7415   -4.8160   -2.9714 C.2       1 UNK         0.5154 
     36 O          25.6146   -4.1599   -1.9362 O.2       1 UNK        -0.5181 
     37 C          28.4891    0.9838   -5.0925 C.2       5 UNK         0.5014 
     38 O          28.3053    0.3016   -6.1019 O.2       5 UNK        -0.5248 
     39 N          29.3926    1.9727   -5.0315 N.am      6 UNK        -0.4434 
     40 CA         30.3548    2.3184   -6.0793 C.3       6 UNK         0.0363 
     41 CB         31.2648    3.4513   -5.5810 C.3       6 UNK        -0.1936 
     42 C          29.7351    2.6861   -7.4349 C.2       6 UNK         0.5081 
     43 O          30.3787    2.4537   -8.4573 O.2       6 UNK        -0.5248 
     44 N          28.4998    3.2063   -7.4331 N.am      7 UNK        -0.4718 
     45 CA         27.7414    3.5189   -8.6473 C.3       7 UNK         0.0273 
     46 CB         26.5262    4.3849   -8.2795 C.3       7 UNK        -0.1935 
     47 C          27.2982    2.2678   -9.4284 C.2       7 UNK         0.5018 
     48 O          27.0692    2.3702  -10.6341 O.2       7 UNK        -0.5186 
     49 N          27.1889    1.1233   -8.7402 N.am      8 UNK        -0.4240 
     50 CA         26.8414   -0.1710   -9.3239 C.3       8 UNK         0.0235 
     51 CB         25.7582   -0.8339   -8.4604 C.3       8 UNK        -0.2000 
     52 C          28.0742   -1.0790   -9.4345 C.2       8 UNK         0.4941 
     53 O          28.2577   -1.7249  -10.4662 O.2       8 UNK        -0.5273 
     54 N          28.8916   -1.1213   -8.3735 N.am      9 UNK        -0.4262 
     55 CA         30.0752   -1.9747   -8.2545 C.3       9 UNK         0.0264 
     56 CB         30.4385   -2.1129   -6.7668 C.3       9 UNK        -0.1955 
     57 C          31.2871   -1.4905   -9.0708 C.2       9 UNK         0.5031 
     58 O          32.1835   -2.2980   -9.3197 O.2       9 UNK        -0.5390 
     59 N          31.2989   -0.2079   -9.4711 N.am      10 UNK        -0.4204 
     60 CA         32.3478    0.4725  -10.2426 C.3       10 UNK         0.0237 
     61 CB         32.4495   -0.1072  -11.6703 C.3       10 UNK        -0.1985 
     62 C          33.6952    0.4981   -9.4960 C.2       10 UNK         0.4970 
     63 O          34.7190    0.0871  -10.0460 O.2       10 UNK        -0.4914 
     64 N          33.6588    0.9713   -8.2433 N.am      11 UNK        -0.4285 
     65 CA         34.8202    1.0465   -7.3384 C.3       11 UNK         0.1007 
     66 C          35.9050    2.0875   -7.7454 C.2       11 UNK         0.5703 
     67 N          35.6240    3.0305   -8.6374 N.am      11 UNK        -0.7361 
     68 O          37.0249    2.0340   -7.2427 O.2       11 UNK        -0.4986 
     69 C69        34.3964    1.2601   -5.8608 C.3       12 UNK        -0.0947 
     70 S70        33.2106    0.0141   -5.2611 S.3       12 UNK        -0.2240 
     71 C71        33.2325    0.3688   -3.4754 C.3       12 UNK         0.0194 
     72 H72        25.7380   -4.2822   -7.8841 H         1 UNK         0.0906 
     73 H73        27.3713   -3.6130   -7.8696 H         1 UNK         0.0906 
     74 H74        27.1264   -5.3440   -7.6369 H         1 UNK         0.0906 
     75 H75        27.4791   -5.8937   -5.5007 H         1 UNK         0.3140 
     76 H76        27.4690   -5.9738   -3.2941 H         1 UNK         0.1085 
     77 H77        28.1641   -3.9115   -2.0335 H         1 UNK         0.0836 
     78 H78        27.9313   -2.9506   -3.4726 H         1 UNK         0.0836 
     79 H79        30.4017   -4.3274   -1.3050 H         1 UNK         0.0731 
     80 H80        31.8362   -4.3553   -2.2950 H         1 UNK         0.0731 
     81 H81        32.6700   -2.3027   -3.4187 H         1 UNK         0.1312 
     82 H82        31.3275    1.4527   -1.8484 H         1 UNK         0.1406 
     83 H83        29.3045   -2.1668   -0.7609 H         1 UNK         0.1631 
     84 H84        29.6562    1.5107   -0.1163 H         1 UNK         0.0717 
     85 H85        29.1595    0.0193    0.6357 H         1 UNK         0.0717 
     86 H86        27.3872    2.5241   -2.6176 H         1 UNK         0.0934 
     87 H87        28.9994    1.8915   -2.5566 H         1 UNK         0.0934 
     88 H88        27.8479   -0.3305   -3.5941 H         1 UNK         0.0739 
     89 H89        25.6424   -0.0553   -3.8802 H         1 UNK         0.3093 
     90 H90        23.5742    1.8200   -3.9574 H         1 UNK         0.0818 
     91 H91        22.3416    2.5857   -5.9751 H         1 UNK         0.0819 
     92 H92        23.6775    3.6617   -5.6208 H         1 UNK         0.0819 
     93 H93        23.8211    2.4989   -6.9323 H         1 UNK         0.0819 
     94 H94        23.1416    0.2171   -6.2727 H         1 UNK         0.3041 
     95 H95        21.7038   -1.9157   -4.9268 H         1 UNK         0.0784 
     96 H96        22.3596   -3.0604   -7.0545 H         1 UNK         0.0793 
     97 H97        22.4585   -1.3227   -7.2194 H         1 UNK         0.0793 
     98 H98        23.9282   -2.2751   -7.0008 H         1 UNK         0.0793 
     99 H99        24.2497   -3.4682   -4.7436 H         1 UNK         0.3024 
    100 H100       23.2669   -5.2903   -2.0833 H         1 UNK         0.1171 
    101 H101       22.5696   -6.6549   -4.7436 H         1 UNK         0.0786 
    102 H102       21.5322   -6.5714   -3.3271 H         1 UNK         0.0786 
    103 H103       23.0284   -7.4844   -3.2554 H         1 UNK         0.0786 
    104 H104       24.9061   -5.9272   -4.4405 H         1 UNK         0.2977 
    105 H105       29.4418    2.5225   -4.1875 H         1 UNK         0.3127 
    106 H106       30.9657    1.4329   -6.2512 H         1 UNK         0.0770 
    107 H107       30.6966    4.3542   -5.3540 H         1 UNK         0.0814 
    108 H108       32.0076    3.7170   -6.3345 H         1 UNK         0.0814 
    109 H109       31.8072    3.1597   -4.6817 H         1 UNK         0.0814 
    110 H110       28.0184    3.3214   -6.5496 H         1 UNK         0.2983 
    111 H111       28.3878    4.1008   -9.3084 H         1 UNK         0.0947 
    112 H112       25.9663    4.6707   -9.1711 H         1 UNK         0.0806 
    113 H113       26.8297    5.3047   -7.7795 H         1 UNK         0.0806 
    114 H114       25.8386    3.8556   -7.6197 H         1 UNK         0.0806 
    115 H115       27.4348    1.1249   -7.7558 H         1 UNK         0.3000 
    116 H116       26.4348   -0.0393  -10.3290 H         1 UNK         0.0850 
    117 H117       26.0952   -0.9929   -7.4346 H         1 UNK         0.0810 
    118 H118       24.8562   -0.2233   -8.4241 H         1 UNK         0.0810 
    119 H119       25.4772   -1.8052   -8.8692 H         1 UNK         0.0810 
    120 H120       28.6471   -0.5818   -7.5416 H         1 UNK         0.3040 
    121 H121       29.8144   -2.9669   -8.6287 H         1 UNK         0.0766 
    122 H122       29.6155   -2.5439   -6.1960 H         1 UNK         0.0812 
    123 H123       30.6801   -1.1489   -6.3199 H         1 UNK         0.0812 
    124 H124       31.3038   -2.7625   -6.6284 H         1 UNK         0.0812 
    125 H125       30.5354    0.3892   -9.1761 H         1 UNK         0.3205 
    126 H126       32.0343    1.5127  -10.3406 H         1 UNK         0.0754 
    127 H127       33.1486    0.4704  -12.2763 H         1 UNK         0.0769 
    128 H128       31.4845   -0.0822  -12.1767 H         1 UNK         0.0769 
    129 H129       32.7995   -1.1400  -11.6681 H         1 UNK         0.0769 
    130 H130       32.7782    1.2905   -7.8694 H         1 UNK         0.2981 
    131 H131       35.3148    0.0745   -7.3902 H         1 UNK         0.0541 
    132 H132       36.3372    3.6948   -8.8938 H         1 UNK         0.3459 
    133 H133       34.7101    3.0835   -9.0566 H         1 UNK         0.3459 
    134 H134       33.9545    2.2486   -5.7298 H         1 UNK         0.0612 
    135 H135       35.2718    1.2267   -5.2092 H         1 UNK         0.0612 
    136 H136       33.1605    1.4476   -3.3304 H         1 UNK         0.0624 
    137 H137       34.1937    0.0612   -3.0616 H         1 UNK         0.0624 
@<TRIPOS>BOND
     1    1    2 1    
     2    1   72 1    
     3    1   73 1    
     4    1   74 1    
     5    2    3 2    
     6    2    4 am   BACKBONE|DICT|INTERRES
     7    4    5 1    
     8    4   75 1    
     9    5    6 1    
    10    5   35 1    
    11    5   76 1    
    12    6    7 1    
    13    6   77 1    
    14    6   78 1    
    15    7    8 1    
    16    8    9 1    
    17    8   79 1    
    18    8   80 1    
    19    9   10 ar   
    20    9   14 ar   
    21   10   11 ar   
    22   10   81 1    
    23   11   12 ar   
    24   11   71 1    
    25   12   13 ar   
    26   12   82 1    
    27   13   14 ar   
    28   13   15 1    
    29   14   83 1    
    30   15   16 1    
    31   15   84 1    
    32   15   85 1    
    33   16   17 1    
    34   17   18 1    
    35   17   86 1    
    36   17   87 1    
    37   18   19 1    
    38   18   37 1    
    39   18   88 1    
    40   19   20 am   BACKBONE|DICT|INTERRES
    41   19   89 1    
    42   20   21 2    
    43   20   22 1    
    44   22   23 1    
    45   22   24 1    
    46   22   90 1    
    47   23   91 1    
    48   23   92 1    
    49   23   93 1    
    50   24   25 am   BACKBONE|DICT|INTERRES
    51   24   94 1    
    52   25   26 2    
    53   25   27 1    
    54   27   28 1    
    55   27   29 1    
    56   27   95 1    
    57   28   96 1    
    58   28   97 1    
    59   28   98 1    
    60   29   30 am   BACKBONE|DICT|INTERRES
    61   29   99 1    
    62   30   31 2    
    63   30   32 1    
    64   32   33 1    
    65   32   34 1    
    66   32  100 1    
    67   33  101 1    
    68   33  102 1    
    69   33  103 1    
    70   34   35 am   BACKBONE|DICT|INTERRES
    71   34  104 1    
    72   35   36 2    
    73   37   38 2    
    74   37   39 am   BACKBONE|DICT|INTERRES
    75   39   40 1    
    76   39  105 1    
    77   40   41 1    
    78   40   42 1    
    79   40  106 1    
    80   41  107 1    
    81   41  108 1    
    82   41  109 1    
    83   42   43 2    
    84   42   44 am   BACKBONE|DICT|INTERRES
    85   44   45 1    
    86   44  110 1    
    87   45   46 1    
    88   45   47 1    
    89   45  111 1    
    90   46  112 1    
    91   46  113 1    
    92   46  114 1    
    93   47   48 2    
    94   47   49 am   BACKBONE|DICT|INTERRES
    95   49   50 1    
    96   49  115 1    
    97   50   51 1    
    98   50   52 1    
    99   50  116 1    
   100   51  117 1    
   101   51  118 1    
   102   51  119 1    
   103   52   53 2    
   104   52   54 am   BACKBONE|DICT|INTERRES
   105   54   55 1    
   106   54  120 1    
   107   55   56 1    
   108   55   57 1    
   109   55  121 1    
   110   56  122 1    
   111   56  123 1    
   112   56  124 1    
   113   57   58 2    
   114   57   59 am   BACKBONE|DICT|INTERRES
   115   59   60 1    
   116   59  125 1    
   117   60   61 1    
   118   60   62 1    
   119   60  126 1    
   120   61  127 1    
   121   61  128 1    
   122   61  129 1    
   123   62   63 2    
   124   62   64 am   BACKBONE|DICT|INTERRES
   125   64   65 1    
   126   64  130 1    
   127   65   66 1    
   128   65   69 1    
   129   65  131 1    
   130   66   67 am   BACKBONE|DICT|INTERRES
   131   66   68 2    
   132   67  132 1    
   133   67  133 1    
   134   69   70 1    
   135   69  134 1    
   136   69  135 1    
   137   70   71 1    
   138   71  136 1    
   139   71  137 1    
@<TRIPOS>SUBSTRUCTURE
     1 UNK         1 GROUP             0       ****    0 ROOT    
