@<TRIPOS>MOLECULE
3R137
137   139    1
SMALL
USER_CHARGES


@<TRIPOS>ATOM
      1 CA         28.5195   -7.6330   -5.2707 C.3       0 UNK        -0.2020 
      2 C          27.8683   -7.0258   -4.0369 C.2       0 UNK         0.4855 
      3 O          26.9379   -7.6135   -3.4834 O.2       0 UNK        -0.5197 
      4 N          28.3573   -5.8599   -3.5977 N.am      1 UNK        -0.4892 
      5 CA         27.8206   -5.0977   -2.4630 C.3       1 UNK         0.0835 
      6 C6         28.8541   -4.0848   -1.9079 C.3       12 UNK        -0.0855 
      7 S7         30.4581   -4.8547   -1.4860 S.3       12 UNK        -0.2931 
      8 C8         31.2103   -3.6026   -0.3947 C.3       12 UNK         0.0378 
      9 C9         31.1915   -2.2165   -1.0226 C.ar      12 UNK        -0.0802 
     10 C10        32.0704   -1.8928   -2.0601 C.ar      12 UNK        -0.0944 
     11 C11        32.0148   -0.6344   -2.6683 C.ar      12 UNK        -0.0787 
     12 C12        31.0698    0.3017   -2.2350 C.ar      12 UNK        -0.0862 
     13 C13        30.1877   -0.0135   -1.1974 C.ar      12 UNK        -0.0733 
     14 C14        30.2662   -1.2665   -0.5844 C.ar      12 UNK        -0.0832 
     15 C15        29.1267    0.9771   -0.7472 C.3       12 UNK         0.0240 
     16 S16        27.4687    0.3538   -1.1652 S.3       12 UNK        -0.2522 
     17 C17        26.7994    1.6932   -2.2017 C.3       12 UNK        -0.0967 
     18 CA         27.2963    1.6657   -3.6698 C.3       5 UNK         0.0660 
     19 N          27.1159    0.3589   -4.3114 N.am      5 UNK        -0.4015 
     20 C          27.6119    0.0260   -5.5144 C.2       4 UNK         0.4946 
     21 O          28.3014    0.7770   -6.2041 O.2       4 UNK        -0.5353 
     22 CA         27.2238   -1.3503   -6.0848 C.3       4 UNK         0.0277 
     23 CB         28.2868   -2.3979   -5.7241 C.3       4 UNK        -0.1981 
     24 N          25.8960   -1.8096   -5.6642 N.am      4 UNK        -0.4209 
     25 C          24.7563   -1.1350   -5.8898 C.2       3 UNK         0.4942 
     26 O          24.7089   -0.0835   -6.5295 O.2       3 UNK        -0.5208 
     27 CA         23.4567   -1.6717   -5.2637 C.3       3 UNK         0.0250 
     28 CB         22.6194   -2.4057   -6.3226 C.3       3 UNK        -0.1990 
     29 N          23.6493   -2.5499   -4.1063 N.am      3 UNK        -0.4232 
     30 C          24.2830   -2.2312   -2.9677 C.2       2 UNK         0.4993 
     31 O          24.7920   -1.1302   -2.7548 O.2       2 UNK        -0.5286 
     32 CA         24.4042   -3.3420   -1.9037 C.3       2 UNK         0.0209 
     33 CB         23.3487   -4.4607   -2.0576 C.3       2 UNK        -0.1931 
     34 N          25.7466   -3.9406   -1.8302 N.am      2 UNK        -0.4546 
     35 C          26.4967   -4.3959   -2.8471 C.2       1 UNK         0.5154 
     36 O          26.1868   -4.2735   -4.0368 O.2       1 UNK        -0.5181 
     37 C          26.6141    2.8016   -4.4607 C.2       5 UNK         0.5014 
     38 O          27.1422    3.9138   -4.4958 O.2       5 UNK        -0.5248 
     39 N          25.4535    2.5070   -5.0651 N.am      6 UNK        -0.4434 
     40 CA         24.6905    3.4421   -5.8907 C.3       6 UNK         0.0363 
     41 CB         23.2046    3.0465   -5.8788 C.3       6 UNK        -0.1936 
     42 C          25.2288    3.4934   -7.3276 C.2       6 UNK         0.5081 
     43 O          25.2899    4.5773   -7.9083 O.2       6 UNK        -0.5248 
     44 N          25.6068    2.3284   -7.8748 N.am      7 UNK        -0.4718 
     45 CA         26.1659    2.1883   -9.2215 C.3       7 UNK         0.0273 
     46 CB         26.2203    0.7014   -9.6060 C.3       7 UNK        -0.1935 
     47 C          27.5543    2.8307   -9.3696 C.2       7 UNK         0.5018 
     48 O          27.8347    3.4107  -10.4196 O.2       7 UNK        -0.5186 
     49 N          28.3966    2.7004   -8.3323 N.am      8 UNK        -0.4240 
     50 CA         29.7697    3.2048   -8.1838 C.3       8 UNK         0.0235 
     51 CB         29.8251    4.7424   -8.2641 C.3       8 UNK        -0.2000 
     52 C          30.7889    2.5535   -9.1343 C.2       8 UNK         0.4941 
     53 O          31.8238    2.0759   -8.6712 O.2       8 UNK        -0.5273 
     54 N          30.4717    2.4976  -10.4349 N.am      9 UNK        -0.4262 
     55 CA         31.2710    1.8623  -11.4897 C.3       9 UNK         0.0264 
     56 CB         30.6109    2.1245  -12.8523 C.3       9 UNK        -0.1955 
     57 C          31.4853    0.3528  -11.2756 C.2       9 UNK         0.5031 
     58 O          32.5049   -0.1829  -11.7122 O.2       9 UNK        -0.5390 
     59 N          30.5499   -0.2911  -10.5624 N.am      10 UNK        -0.4204 
     60 CA         30.6172   -1.6824  -10.1081 C.3       10 UNK         0.0237 
     61 CB         29.3068   -2.0269   -9.3825 C.3       10 UNK        -0.1985 
     62 C          31.8245   -1.9883   -9.1996 C.2       10 UNK         0.4970 
     63 O          32.2678   -3.1368   -9.1664 O.2       10 UNK        -0.4914 
     64 N          32.3396   -0.9692   -8.4989 N.am      11 UNK        -0.4285 
     65 CA         33.5618   -1.0448   -7.6866 C.3       11 UNK         0.1007 
     66 C          34.8758   -0.9388   -8.5170 C.2       11 UNK         0.5703 
     67 N          34.8365   -0.6967   -9.8235 N.am      11 UNK        -0.7361 
     68 O          35.9617   -1.0964   -7.9638 O.2       11 UNK        -0.4986 
     69 C69        33.5353   -0.0102   -6.5312 C.3       12 UNK        -0.0947 
     70 S70        32.1239   -0.2716   -5.4036 S.3       12 UNK        -0.2240 
     71 C71        32.9724   -0.2872   -3.7963 C.3       12 UNK         0.0194 
     72 H72        29.3357   -7.0163   -5.6468 H         1 UNK         0.0906 
     73 H73        28.9197   -8.6194   -5.0373 H         1 UNK         0.0906 
     74 H74        27.7835   -7.7427   -6.0667 H         1 UNK         0.0906 
     75 H75        29.1219   -5.4214   -4.0897 H         1 UNK         0.3140 
     76 H76        27.5879   -5.8098   -1.6676 H         1 UNK         0.1085 
     77 H77        28.4619   -3.6002   -1.0120 H         1 UNK         0.0836 
     78 H78        29.0435   -3.2864   -2.6262 H         1 UNK         0.0836 
     79 H79        32.2395   -3.8914   -0.1767 H         1 UNK         0.0731 
     80 H80        30.6844   -3.6013    0.5615 H         1 UNK         0.0731 
     81 H81        32.7845   -2.6289   -2.4035 H         1 UNK         0.1312 
     82 H82        31.0149    1.2677   -2.7183 H         1 UNK         0.1406 
     83 H83        29.5758   -1.5123    0.2114 H         1 UNK         0.1631 
     84 H84        29.2949    1.9562   -1.1978 H         1 UNK         0.0717 
     85 H85        29.1939    1.1187    0.3324 H         1 UNK         0.0717 
     86 H86        25.7113    1.6029   -2.1692 H         1 UNK         0.0934 
     87 H87        27.0329    2.6510   -1.7319 H         1 UNK         0.0934 
     88 H88        28.3687    1.8729   -3.6679 H         1 UNK         0.0739 
     89 H89        26.5381   -0.3055   -3.8080 H         1 UNK         0.3093 
     90 H90        27.1954   -1.2592   -7.1703 H         1 UNK         0.0818 
     91 H91        28.3526   -2.5385   -4.6470 H         1 UNK         0.0819 
     92 H92        28.0664   -3.3642   -6.1780 H         1 UNK         0.0819 
     93 H93        29.2748   -2.0906   -6.0709 H         1 UNK         0.0819 
     94 H94        25.8592   -2.6698   -5.1222 H         1 UNK         0.3041 
     95 H95        22.8895   -0.8044   -4.9198 H         1 UNK         0.0784 
     96 H96        22.4351   -1.7659   -7.1872 H         1 UNK         0.0793 
     97 H97        23.1230   -3.3037   -6.6833 H         1 UNK         0.0793 
     98 H98        21.6468   -2.6998   -5.9276 H         1 UNK         0.0793 
     99 H99        23.3071   -3.4952   -4.1999 H         1 UNK         0.3024 
    100 H100       24.2259   -2.8508   -0.9454 H         1 UNK         0.1171 
    101 H101       23.3669   -5.1316   -1.1985 H         1 UNK         0.0786 
    102 H102       22.3394   -4.0501   -2.1160 H         1 UNK         0.0786 
    103 H103       23.5164   -5.0692   -2.9472 H         1 UNK         0.0786 
    104 H104       26.1123   -4.0425   -0.8936 H         1 UNK         0.2977 
    105 H105       25.1190    1.5525   -5.0403 H         1 UNK         0.3127 
    106 H106       24.7750    4.4442   -5.4642 H         1 UNK         0.0770 
    107 H107       23.0428    2.0536   -6.2999 H         1 UNK         0.0814 
    108 H108       22.6118    3.7487   -6.4664 H         1 UNK         0.0814 
    109 H109       22.8013    3.0511   -4.8661 H         1 UNK         0.0814 
    110 H110       25.4520    1.4720   -7.3484 H         1 UNK         0.2983 
    111 H111       25.4923    2.6958   -9.9156 H         1 UNK         0.0947 
    112 H112       26.5581    0.5769  -10.6358 H         1 UNK         0.0806 
    113 H113       25.2387    0.2335   -9.5273 H         1 UNK         0.0806 
    114 H114       26.9076    0.1465   -8.9688 H         1 UNK         0.0806 
    115 H115       28.0886    2.1260   -7.5500 H         1 UNK         0.3000 
    116 H116       30.0684    2.9220   -7.1725 H         1 UNK         0.0850 
    117 H117       30.8320    5.1056   -8.0540 H         1 UNK         0.0810 
    118 H118       29.1565    5.1987   -7.5339 H         1 UNK         0.0810 
    119 H119       29.5466    5.1138   -9.2506 H         1 UNK         0.0810 
    120 H120       29.5792    2.9073  -10.7060 H         1 UNK         0.3040 
    121 H121       32.2556    2.3342  -11.4855 H         1 UNK         0.0766 
    122 H122       31.1933    1.6802  -13.6609 H         1 UNK         0.0812 
    123 H123       30.5363    3.1926  -13.0577 H         1 UNK         0.0812 
    124 H124       29.6063    1.7024  -12.9025 H         1 UNK         0.0812 
    125 H125       29.7543    0.2460  -10.2528 H         1 UNK         0.3205 
    126 H126       30.7042   -2.3164  -10.9928 H         1 UNK         0.0754 
    127 H127       29.1560   -1.3840   -8.5151 H         1 UNK         0.0769 
    128 H128       29.3122   -3.0588   -9.0281 H         1 UNK         0.0769 
    129 H129       28.4442   -1.9159  -10.0400 H         1 UNK         0.0769 
    130 H130       31.9410   -0.0423   -8.5917 H         1 UNK         0.2981 
    131 H131       33.5940   -2.0339   -7.2258 H         1 UNK         0.0541 
    132 H132       33.9576   -0.5726  -10.3126 H         1 UNK         0.3459 
    133 H133       35.7025   -0.6404  -10.3350 H         1 UNK         0.3459 
    134 H134       33.4825    1.0063   -6.9228 H         1 UNK         0.0612 
    135 H135       34.4613   -0.0611   -5.9558 H         1 UNK         0.0612 
    136 H136       33.4166    0.6923   -3.6130 H         1 UNK         0.0624 
    137 H137       33.7954   -1.0029   -3.8298 H         1 UNK         0.0624 
@<TRIPOS>BOND
     1    1    2 1    
     2    1   72 1    
     3    1   73 1    
     4    1   74 1    
     5    2    3 2    
     6    2    4 am   BACKBONE|DICT|INTERRES
     7    4    5 1    
     8    4   75 1    
     9    5    6 1    
    10    5   35 1    
    11    5   76 1    
    12    6    7 1    
    13    6   77 1    
    14    6   78 1    
    15    7    8 1    
    16    8    9 1    
    17    8   79 1    
    18    8   80 1    
    19    9   10 ar   
    20    9   14 ar   
    21   10   11 ar   
    22   10   81 1    
    23   11   12 ar   
    24   11   71 1    
    25   12   13 ar   
    26   12   82 1    
    27   13   14 ar   
    28   13   15 1    
    29   14   83 1    
    30   15   16 1    
    31   15   84 1    
    32   15   85 1    
    33   16   17 1    
    34   17   18 1    
    35   17   86 1    
    36   17   87 1    
    37   18   19 1    
    38   18   37 1    
    39   18   88 1    
    40   19   20 am   BACKBONE|DICT|INTERRES
    41   19   89 1    
    42   20   21 2    
    43   20   22 1    
    44   22   23 1    
    45   22   24 1    
    46   22   90 1    
    47   23   91 1    
    48   23   92 1    
    49   23   93 1    
    50   24   25 am   BACKBONE|DICT|INTERRES
    51   24   94 1    
    52   25   26 2    
    53   25   27 1    
    54   27   28 1    
    55   27   29 1    
    56   27   95 1    
    57   28   96 1    
    58   28   97 1    
    59   28   98 1    
    60   29   30 am   BACKBONE|DICT|INTERRES
    61   29   99 1    
    62   30   31 2    
    63   30   32 1    
    64   32   33 1    
    65   32   34 1    
    66   32  100 1    
    67   33  101 1    
    68   33  102 1    
    69   33  103 1    
    70   34   35 am   BACKBONE|DICT|INTERRES
    71   34  104 1    
    72   35   36 2    
    73   37   38 2    
    74   37   39 am   BACKBONE|DICT|INTERRES
    75   39   40 1    
    76   39  105 1    
    77   40   41 1    
    78   40   42 1    
    79   40  106 1    
    80   41  107 1    
    81   41  108 1    
    82   41  109 1    
    83   42   43 2    
    84   42   44 am   BACKBONE|DICT|INTERRES
    85   44   45 1    
    86   44  110 1    
    87   45   46 1    
    88   45   47 1    
    89   45  111 1    
    90   46  112 1    
    91   46  113 1    
    92   46  114 1    
    93   47   48 2    
    94   47   49 am   BACKBONE|DICT|INTERRES
    95   49   50 1    
    96   49  115 1    
    97   50   51 1    
    98   50   52 1    
    99   50  116 1    
   100   51  117 1    
   101   51  118 1    
   102   51  119 1    
   103   52   53 2    
   104   52   54 am   BACKBONE|DICT|INTERRES
   105   54   55 1    
   106   54  120 1    
   107   55   56 1    
   108   55   57 1    
   109   55  121 1    
   110   56  122 1    
   111   56  123 1    
   112   56  124 1    
   113   57   58 2    
   114   57   59 am   BACKBONE|DICT|INTERRES
   115   59   60 1    
   116   59  125 1    
   117   60   61 1    
   118   60   62 1    
   119   60  126 1    
   120   61  127 1    
   121   61  128 1    
   122   61  129 1    
   123   62   63 2    
   124   62   64 am   BACKBONE|DICT|INTERRES
   125   64   65 1    
   126   64  130 1    
   127   65   66 1    
   128   65   69 1    
   129   65  131 1    
   130   66   67 am   BACKBONE|DICT|INTERRES
   131   66   68 2    
   132   67  132 1    
   133   67  133 1    
   134   69   70 1    
   135   69  134 1    
   136   69  135 1    
   137   70   71 1    
   138   71  136 1    
   139   71  137 1    
@<TRIPOS>SUBSTRUCTURE
     1 UNK         1 GROUP             0       ****    0 ROOT    
