@<TRIPOS>MOLECULE
3R137
137   139    1
SMALL
USER_CHARGES


@<TRIPOS>ATOM
      1 CA         27.0908   -4.3856    1.8995 C.3       0 UNK        -0.2020 
      2 C          27.6728   -3.6776    0.6854 C.2       0 UNK         0.4855 
      3 O          28.4850   -2.7661    0.8394 O.2       0 UNK        -0.5197 
      4 N          27.2532   -4.0793   -0.5218 N.am      1 UNK        -0.4892 
      5 CA         27.7284   -3.5406   -1.8050 C.3       1 UNK         0.0835 
      6 C6         27.6673   -4.6099   -2.9308 C.3       12 UNK        -0.0855 
      7 S7         29.0564   -5.7936   -2.8209 S.3       12 UNK        -0.2931 
      8 C8         30.1325   -5.2750   -4.2070 C.3       12 UNK         0.0378 
      9 C9         31.0142   -4.0817   -3.8522 C.ar      12 UNK        -0.0802 
     10 C10        32.3926   -4.2355   -3.6701 C.ar      12 UNK        -0.0944 
     11 C11        33.1958   -3.1304   -3.3638 C.ar      12 UNK        -0.0787 
     12 C12        32.6044   -1.8759   -3.1789 C.ar      12 UNK        -0.0862 
     13 C13        31.2311   -1.7095   -3.3663 C.ar      12 UNK        -0.0733 
     14 C14        30.4573   -2.8070   -3.7420 C.ar      12 UNK        -0.0832 
     15 C15        30.5718   -0.3545   -3.1630 C.3       12 UNK         0.0240 
     16 S16        30.6277    0.6227   -4.6894 S.3       12 UNK        -0.2522 
     17 C17        29.1487    1.6853   -4.5481 C.3       12 UNK        -0.0967 
     18 CA         28.2391    1.4931   -5.7843 C.3       5 UNK         0.0660 
     19 N          27.5355    0.2046   -5.7905 N.am      5 UNK        -0.4015 
     20 C          26.9715   -0.3128   -6.8914 C.2       4 UNK         0.4946 
     21 O          26.9511    0.2596   -7.9804 O.2       4 UNK        -0.5353 
     22 CA         26.2726   -1.6684   -6.7511 C.3       4 UNK         0.0277 
     23 CB         27.2955   -2.8055   -6.5948 C.3       4 UNK        -0.1981 
     24 N          25.3347   -1.6542   -5.6286 N.am      4 UNK        -0.4209 
     25 C          24.1219   -1.0820   -5.6829 C.2       3 UNK         0.4942 
     26 O          23.6573   -0.5622   -6.6976 O.2       3 UNK        -0.5208 
     27 CA         23.2767   -1.0753   -4.3958 C.3       3 UNK         0.0250 
     28 CB         22.3237   -2.2812   -4.3750 C.3       3 UNK        -0.1990 
     29 N          24.0645   -1.0613   -3.1611 N.am      3 UNK        -0.4232 
     30 C          24.8747   -0.0633   -2.7834 C.2       2 UNK         0.4993 
     31 O          25.0692    0.9552   -3.4451 O.2       2 UNK        -0.5286 
     32 CA         25.6567   -0.2728   -1.4778 C.3       2 UNK         0.0209 
     33 CB         24.7785    0.0512   -0.2586 C.3       2 UNK        -0.1931 
     34 N          26.2345   -1.6150   -1.3275 N.am      2 UNK        -0.4546 
     35 C          27.0410   -2.2151   -2.2159 C.2       1 UNK         0.5154 
     36 O          27.2646   -1.7442   -3.3342 O.2       1 UNK        -0.5181 
     37 C          27.2951    2.6902   -6.0225 C.2       5 UNK         0.5014 
     38 O          27.7187    3.6544   -6.6610 O.2       5 UNK        -0.5248 
     39 N          26.0230    2.5968   -5.6022 N.am      6 UNK        -0.4434 
     40 CA         24.9671    3.5573   -5.9522 C.3       6 UNK         0.0363 
     41 CB         23.6907    3.2380   -5.1583 C.3       6 UNK        -0.1936 
     42 C          24.6522    3.6103   -7.4611 C.2       6 UNK         0.5081 
     43 O          24.2297    4.6582   -7.9497 O.2       6 UNK        -0.5248 
     44 N          24.8813    2.4990   -8.1735 N.am      7 UNK        -0.4718 
     45 CA         24.7555    2.3855   -9.6290 C.3       7 UNK         0.0273 
     46 CB         24.1906    0.9931   -9.9632 C.3       7 UNK        -0.1935 
     47 C          26.0938    2.6258  -10.3577 C.2       7 UNK         0.5018 
     48 O          26.1357    2.4882  -11.5811 O.2       7 UNK        -0.5186 
     49 N          27.1562    2.9629   -9.6080 N.am      8 UNK        -0.4240 
     50 CA         28.5445    3.1554  -10.0456 C.3       8 UNK         0.0235 
     51 CB         28.6644    4.3654  -10.9973 C.3       8 UNK        -0.2000 
     52 C          29.2035    1.8771  -10.6067 C.2       8 UNK         0.4941 
     53 O          30.0973    1.9730  -11.4509 O.2       8 UNK        -0.5273 
     54 N          28.7693    0.7080  -10.1208 N.am      9 UNK        -0.4262 
     55 CA         29.3557   -0.6002  -10.4074 C.3       9 UNK         0.0264 
     56 CB         28.2092   -1.6119  -10.5951 C.3       9 UNK        -0.1955 
     57 C          30.2962   -1.0206   -9.2625 C.2       9 UNK         0.5031 
     58 O          30.4175   -0.3044   -8.2667 O.2       9 UNK        -0.5390 
     59 N          30.9298   -2.1906   -9.4262 N.am      10 UNK        -0.4204 
     60 CA         31.8731   -2.8227   -8.4952 C.3       10 UNK         0.0237 
     61 CB         31.1840   -3.1898   -7.1629 C.3       10 UNK        -0.1985 
     62 C          33.1787   -2.0148   -8.3431 C.2       10 UNK         0.4970 
     63 O          33.7013   -1.5440   -9.3562 O.2       10 UNK        -0.4914 
     64 N          33.7195   -1.9292   -7.1193 N.am      11 UNK        -0.4285 
     65 CA         35.0042   -1.2841   -6.8043 C.3       11 UNK         0.1007 
     66 C          35.0291    0.2327   -7.1419 C.2       11 UNK         0.5703 
     67 N          36.1324    0.7300   -7.6855 N.am      11 UNK        -0.7361 
     68 O          34.0824    0.9677   -6.8703 O.2       11 UNK        -0.4986 
     69 C69        35.4263   -1.5115   -5.3283 C.3       12 UNK        -0.0947 
     70 S70        35.5252   -3.2753   -4.8619 S.3       12 UNK        -0.2240 
     71 C71        34.7024   -3.2942   -3.2349 C.3       12 UNK         0.0194 
     72 H72        26.3782   -5.1609    1.6183 H         1 UNK         0.0906 
     73 H73        27.8876   -4.8524    2.4780 H         1 UNK         0.0906 
     74 H74        26.5780   -3.6703    2.5420 H         1 UNK         0.0906 
     75 H75        26.5827   -4.8329   -0.5862 H         1 UNK         0.3140 
     76 H76        28.7754   -3.2642   -1.6672 H         1 UNK         0.1085 
     77 H77        26.7294   -5.1653   -2.8792 H         1 UNK         0.0836 
     78 H78        27.6754   -4.1702   -3.9275 H         1 UNK         0.0836 
     79 H79        29.5287   -5.0441   -5.0859 H         1 UNK         0.0731 
     80 H80        30.7553   -6.1250   -4.4901 H         1 UNK         0.0731 
     81 H81        32.8468   -5.2100   -3.7881 H         1 UNK         0.1312 
     82 H82        33.2118   -1.0234   -2.9079 H         1 UNK         0.1406 
     83 H83        29.4104   -2.6667   -3.9400 H         1 UNK         0.1631 
     84 H84        31.0711    0.1959   -2.3643 H         1 UNK         0.0717 
     85 H85        29.5398   -0.4909   -2.8412 H         1 UNK         0.0717 
     86 H86        28.6017    1.4887   -3.6244 H         1 UNK         0.0934 
     87 H87        29.5025    2.7162   -4.4805 H         1 UNK         0.0934 
     88 H88        28.8951    1.4852   -6.6592 H         1 UNK         0.0739 
     89 H89        27.5057   -0.3185   -4.9227 H         1 UNK         0.3093 
     90 H90        25.7114   -1.8535   -7.6701 H         1 UNK         0.0818 
     91 H91        27.9615   -2.6431   -5.7495 H         1 UNK         0.0819 
     92 H92        26.8047   -3.7694   -6.4608 H         1 UNK         0.0819 
     93 H93        27.9231   -2.8818   -7.4832 H         1 UNK         0.0819 
     94 H94        25.6823   -1.9853   -4.7372 H         1 UNK         0.3041 
     95 H95        22.6740   -0.1646   -4.4108 H         1 UNK         0.0784 
     96 H96        21.7028   -2.3030   -5.2719 H         1 UNK         0.0793 
     97 H97        22.8676   -3.2258   -4.3323 H         1 UNK         0.0793 
     98 H98        21.6500   -2.2409   -3.5188 H         1 UNK         0.0793 
     99 H99        23.9888   -1.8681   -2.5587 H         1 UNK         0.3024 
    100 H100       26.4896    0.4337   -1.4932 H         1 UNK         0.1171 
    101 H101       24.3468    1.0498   -0.3426 H         1 UNK         0.0786 
    102 H102       25.3579    0.0287    0.6646 H         1 UNK         0.0786 
    103 H103       23.9527   -0.6536   -0.1542 H         1 UNK         0.0786 
    104 H104       26.1108   -2.0679   -0.4337 H         1 UNK         0.2977 
    105 H105       25.7464    1.8187   -5.0067 H         1 UNK         0.3127 
    106 H106       25.3115    4.5507   -5.6572 H         1 UNK         0.0770 
    107 H107       23.3245    2.2335   -5.3741 H         1 UNK         0.0814 
    108 H108       22.8906    3.9379   -5.4031 H         1 UNK         0.0814 
    109 H109       23.8634    3.3098   -4.0844 H         1 UNK         0.0814 
    110 H110       25.2525    1.6824   -7.7022 H         1 UNK         0.2983 
    111 H111       24.0506    3.1339   -9.9976 H         1 UNK         0.0947 
    112 H112       24.0093    0.8885  -11.0336 H         1 UNK         0.0806 
    113 H113       23.2418    0.8179   -9.4557 H         1 UNK         0.0806 
    114 H114       24.8761    0.1973   -9.6698 H         1 UNK         0.0806 
    115 H115       27.0104    3.0513   -8.6092 H         1 UNK         0.3000 
    116 H116       29.1052    3.3978   -9.1415 H         1 UNK         0.0850 
    117 H117       29.7097    4.6063  -11.1939 H         1 UNK         0.0810 
    118 H118       28.2044    5.2552  -10.5676 H         1 UNK         0.0810 
    119 H119       28.1903    4.1726  -11.9601 H         1 UNK         0.0810 
    120 H120       28.0747    0.7128   -9.3753 H         1 UNK         0.3040 
    121 H121       29.9396   -0.5581  -11.3291 H         1 UNK         0.0766 
    122 H122       27.5192   -1.2835  -11.3728 H         1 UNK         0.0812 
    123 H123       27.6335   -1.7461   -9.6795 H         1 UNK         0.0812 
    124 H124       28.5825   -2.5920  -10.8928 H         1 UNK         0.0812 
    125 H125       30.7976   -2.6809  -10.2997 H         1 UNK         0.3205 
    126 H126       32.1679   -3.7604   -8.9685 H         1 UNK         0.0754 
    127 H127       31.8292   -3.8213   -6.5523 H         1 UNK         0.0769 
    128 H128       30.2672   -3.7524   -7.3361 H         1 UNK         0.0769 
    129 H129       30.9261   -2.3063   -6.5771 H         1 UNK         0.0769 
    130 H130       33.2218   -2.3228   -6.3346 H         1 UNK         0.2981 
    131 H131       35.7495   -1.7730   -7.4348 H         1 UNK         0.0541 
    132 H132       36.1732    1.7152   -7.8944 H         1 UNK         0.3459 
    133 H133       36.9213    0.1398   -7.8994 H         1 UNK         0.3459 
    134 H134       36.4114   -1.0770   -5.1486 H         1 UNK         0.0612 
    135 H135       34.7448   -0.9867   -4.6599 H         1 UNK         0.0612 
    136 H136       35.1264   -2.5128   -2.6022 H         1 UNK         0.0624 
    137 H137       34.9248   -4.2409   -2.7405 H         1 UNK         0.0624 
@<TRIPOS>BOND
     1    1    2 1    
     2    1   72 1    
     3    1   73 1    
     4    1   74 1    
     5    2    3 2    
     6    2    4 am   BACKBONE|DICT|INTERRES
     7    4    5 1    
     8    4   75 1    
     9    5    6 1    
    10    5   35 1    
    11    5   76 1    
    12    6    7 1    
    13    6   77 1    
    14    6   78 1    
    15    7    8 1    
    16    8    9 1    
    17    8   79 1    
    18    8   80 1    
    19    9   10 ar   
    20    9   14 ar   
    21   10   11 ar   
    22   10   81 1    
    23   11   12 ar   
    24   11   71 1    
    25   12   13 ar   
    26   12   82 1    
    27   13   14 ar   
    28   13   15 1    
    29   14   83 1    
    30   15   16 1    
    31   15   84 1    
    32   15   85 1    
    33   16   17 1    
    34   17   18 1    
    35   17   86 1    
    36   17   87 1    
    37   18   19 1    
    38   18   37 1    
    39   18   88 1    
    40   19   20 am   BACKBONE|DICT|INTERRES
    41   19   89 1    
    42   20   21 2    
    43   20   22 1    
    44   22   23 1    
    45   22   24 1    
    46   22   90 1    
    47   23   91 1    
    48   23   92 1    
    49   23   93 1    
    50   24   25 am   BACKBONE|DICT|INTERRES
    51   24   94 1    
    52   25   26 2    
    53   25   27 1    
    54   27   28 1    
    55   27   29 1    
    56   27   95 1    
    57   28   96 1    
    58   28   97 1    
    59   28   98 1    
    60   29   30 am   BACKBONE|DICT|INTERRES
    61   29   99 1    
    62   30   31 2    
    63   30   32 1    
    64   32   33 1    
    65   32   34 1    
    66   32  100 1    
    67   33  101 1    
    68   33  102 1    
    69   33  103 1    
    70   34   35 am   BACKBONE|DICT|INTERRES
    71   34  104 1    
    72   35   36 2    
    73   37   38 2    
    74   37   39 am   BACKBONE|DICT|INTERRES
    75   39   40 1    
    76   39  105 1    
    77   40   41 1    
    78   40   42 1    
    79   40  106 1    
    80   41  107 1    
    81   41  108 1    
    82   41  109 1    
    83   42   43 2    
    84   42   44 am   BACKBONE|DICT|INTERRES
    85   44   45 1    
    86   44  110 1    
    87   45   46 1    
    88   45   47 1    
    89   45  111 1    
    90   46  112 1    
    91   46  113 1    
    92   46  114 1    
    93   47   48 2    
    94   47   49 am   BACKBONE|DICT|INTERRES
    95   49   50 1    
    96   49  115 1    
    97   50   51 1    
    98   50   52 1    
    99   50  116 1    
   100   51  117 1    
   101   51  118 1    
   102   51  119 1    
   103   52   53 2    
   104   52   54 am   BACKBONE|DICT|INTERRES
   105   54   55 1    
   106   54  120 1    
   107   55   56 1    
   108   55   57 1    
   109   55  121 1    
   110   56  122 1    
   111   56  123 1    
   112   56  124 1    
   113   57   58 2    
   114   57   59 am   BACKBONE|DICT|INTERRES
   115   59   60 1    
   116   59  125 1    
   117   60   61 1    
   118   60   62 1    
   119   60  126 1    
   120   61  127 1    
   121   61  128 1    
   122   61  129 1    
   123   62   63 2    
   124   62   64 am   BACKBONE|DICT|INTERRES
   125   64   65 1    
   126   64  130 1    
   127   65   66 1    
   128   65   69 1    
   129   65  131 1    
   130   66   67 am   BACKBONE|DICT|INTERRES
   131   66   68 2    
   132   67  132 1    
   133   67  133 1    
   134   69   70 1    
   135   69  134 1    
   136   69  135 1    
   137   70   71 1    
   138   71  136 1    
   139   71  137 1    
@<TRIPOS>SUBSTRUCTURE
     1 UNK         1 GROUP             0       ****    0 ROOT    
