@<TRIPOS>MOLECULE
3R137
137   139    1
SMALL
USER_CHARGES


@<TRIPOS>ATOM
      1 CA         26.8550    0.7935   -1.5157 C.3       0 UNK        -0.2020 
      2 C          27.4172   -0.5351   -1.9960 C.2       0 UNK         0.4855 
      3 O          27.3070   -0.8439   -3.1814 O.2       0 UNK        -0.5197 
      4 N          28.0198   -1.3188   -1.0918 N.am      1 UNK        -0.4892 
      5 CA         28.5984   -2.6404   -1.3648 C.3       1 UNK         0.0835 
      6 C6         29.4197   -3.1926   -0.1664 C.3       12 UNK        -0.0855 
      7 S7         30.5670   -1.9930    0.5923 S.3       12 UNK        -0.2931 
      8 C8         32.1693   -2.4612   -0.1416 C.3       12 UNK         0.0378 
      9 C9         32.3745   -1.9226   -1.5540 C.ar      12 UNK        -0.0802 
     10 C10        32.9779   -2.7288   -2.5250 C.ar      12 UNK        -0.0944 
     11 C11        33.2378   -2.2282   -3.8056 C.ar      12 UNK        -0.0787 
     12 C12        32.9037   -0.9049   -4.1028 C.ar      12 UNK        -0.0862 
     13 C13        32.2778   -0.0932   -3.1529 C.ar      12 UNK        -0.0733 
     14 C14        32.0255   -0.6060   -1.8784 C.ar      12 UNK        -0.0832 
     15 C15        31.9096    1.3492   -3.4807 C.3       12 UNK         0.0240 
     16 S16        31.1031    1.5286   -5.1040 S.3       12 UNK        -0.2522 
     17 C17        29.4870    0.7357   -4.8076 C.3       12 UNK        -0.0967 
     18 CA         28.4774    1.0842   -5.9282 C.3       5 UNK         0.0660 
     19 N          27.4511    0.0523   -6.1386 N.am      5 UNK        -0.4015 
     20 C          26.6817    0.0249   -7.2404 C.2       4 UNK         0.4946 
     21 O          26.8727    0.7787   -8.1960 O.2       4 UNK        -0.5353 
     22 CA         25.4615   -0.9116   -7.3010 C.3       4 UNK         0.0277 
     23 CB         25.6406   -2.0104   -8.3577 C.3       4 UNK        -0.1981 
     24 N          25.0640   -1.5205   -6.0338 N.am      4 UNK        -0.4209 
     25 C          24.5796   -0.8699   -4.9711 C.2       3 UNK         0.4942 
     26 O          24.5376    0.3581   -4.8912 O.2       3 UNK        -0.5208 
     27 CA         24.0561   -1.7228   -3.8004 C.3       3 UNK         0.0250 
     28 CB         22.6005   -2.1633   -4.0456 C.3       3 UNK        -0.1990 
     29 N          24.9117   -2.8633   -3.4430 N.am      3 UNK        -0.4232 
     30 C          25.2367   -3.9567   -4.1498 C.2       2 UNK         0.4993 
     31 O          24.7760   -4.2132   -5.2639 O.2       2 UNK        -0.5286 
     32 CA         26.3045   -4.8758   -3.5252 C.3       2 UNK         0.0209 
     33 CB         26.8689   -5.9009   -4.5271 C.3       2 UNK        -0.1931 
     34 N          27.4070   -4.0713   -2.9878 N.am      2 UNK        -0.4546 
     35 C          27.4716   -3.6293   -1.7269 C.2       1 UNK         0.5154 
     36 O          26.6385   -3.9283   -0.8680 O.2       1 UNK        -0.5181 
     37 C          27.8585    2.4919   -5.7479 C.2       5 UNK         0.5014 
     38 O          28.5191    3.4807   -6.0664 O.2       5 UNK        -0.5248 
     39 N          26.5782    2.5793   -5.3447 N.am      6 UNK        -0.4434 
     40 CA         25.7997    3.8250   -5.3682 C.3       6 UNK         0.0363 
     41 CB         24.4730    3.6192   -4.6212 C.3       6 UNK        -0.1936 
     42 C          25.5402    4.3557   -6.7951 C.2       6 UNK         0.5081 
     43 O          25.3043    5.5530   -6.9554 O.2       6 UNK        -0.5248 
     44 N          25.6177    3.4729   -7.8016 N.am      7 UNK        -0.4718 
     45 CA         25.5741    3.7952   -9.2302 C.3       7 UNK         0.0273 
     46 CB         24.6479    2.7861   -9.9337 C.3       7 UNK        -0.1935 
     47 C          26.9833    3.7958   -9.8609 C.2       7 UNK         0.5018 
     48 O          27.0891    3.8512  -11.0868 O.2       7 UNK        -0.5186 
     49 N          28.0327    3.7344   -9.0247 N.am      8 UNK        -0.4240 
     50 CA         29.4600    3.7133   -9.3629 C.3       8 UNK         0.0235 
     51 CB         29.8864    5.0333  -10.0419 C.3       8 UNK        -0.2000 
     52 C          29.9145    2.4613  -10.1410 C.2       8 UNK         0.4941 
     53 O          30.8885    2.5413  -10.8935 O.2       8 UNK        -0.5273 
     54 N          29.2361    1.3216   -9.9415 N.am      9 UNK        -0.4262 
     55 CA         29.6596    0.0212  -10.4692 C.3       9 UNK         0.0264 
     56 CB         28.4542   -0.9315  -10.4887 C.3       9 UNK        -0.1955 
     57 C          30.7975   -0.5836   -9.6267 C.2       9 UNK         0.5031 
     58 O          31.0497   -0.1374   -8.5040 O.2       9 UNK        -0.5390 
     59 N          31.4382   -1.6284  -10.1680 N.am      10 UNK        -0.4204 
     60 CA         32.4433   -2.4453   -9.4831 C.3       10 UNK         0.0237 
     61 CB         33.1986   -3.2941  -10.5221 C.3       10 UNK        -0.1985 
     62 C          31.7822   -3.3118   -8.3958 C.2       10 UNK         0.4970 
     63 O          31.3938   -4.4492   -8.6676 O.2       10 UNK        -0.4914 
     64 N          31.6048   -2.7154   -7.2124 N.am      11 UNK        -0.4285 
     65 CA         30.8909   -3.2245   -6.0292 C.3       11 UNK         0.1007 
     66 C          29.3512   -3.2927   -6.2118 C.2       11 UNK         0.5703 
     67 N          28.8450   -3.7482   -7.3491 N.am      11 UNK        -0.7361 
     68 O          28.6109   -2.9338   -5.3015 O.2       11 UNK        -0.4986 
     69 C69        31.4202   -4.5791   -5.4716 C.3       12 UNK        -0.0947 
     70 S70        33.1943   -4.7591   -5.0466 S.3       12 UNK        -0.2240 
     71 C71        33.9031   -3.0857   -4.8763 C.3       12 UNK         0.0194 
     72 H72        25.7928    0.8557   -1.7515 H         1 UNK         0.0906 
     73 H73        26.9737    0.9226   -0.4402 H         1 UNK         0.0906 
     74 H74        27.3613    1.6181   -2.0165 H         1 UNK         0.0906 
     75 H75        28.0861   -1.0163   -0.1303 H         1 UNK         0.3140 
     76 H76        29.2702   -2.5369   -2.2208 H         1 UNK         0.1085 
     77 H77        28.7559   -3.5197    0.6369 H         1 UNK         0.0836 
     78 H78        29.9724   -4.0833   -0.4708 H         1 UNK         0.0836 
     79 H79        32.2765   -3.5467   -0.1149 H         1 UNK         0.0731 
     80 H80        32.9643   -2.0621    0.4896 H         1 UNK         0.0731 
     81 H81        33.2601   -3.7442   -2.2823 H         1 UNK         0.1312 
     82 H82        33.1209   -0.5052   -5.0839 H         1 UNK         0.1406 
     83 H83        31.5699    0.0271   -1.1293 H         1 UNK         0.1631 
     84 H84        32.8211    1.9481   -3.4769 H         1 UNK         0.0717 
     85 H85        31.2581    1.7720   -2.7144 H         1 UNK         0.0717 
     86 H86        29.6518   -0.3419   -4.7634 H         1 UNK         0.0934 
     87 H87        29.1114    1.0283   -3.8268 H         1 UNK         0.0934 
     88 H88        29.0449    1.1210   -6.8616 H         1 UNK         0.0739 
     89 H89        27.2600   -0.5728   -5.3613 H         1 UNK         0.3093 
     90 H90        24.6234   -0.2889   -7.6214 H         1 UNK         0.0818 
     91 H91        24.7516   -2.6368   -8.4343 H         1 UNK         0.0819 
     92 H92        25.8096   -1.5780   -9.3443 H         1 UNK         0.0819 
     93 H93        26.4856   -2.6560   -8.1287 H         1 UNK         0.0819 
     94 H94        25.0573   -2.5373   -5.9868 H         1 UNK         0.3041 
     95 H95        24.0586   -1.0725   -2.9243 H         1 UNK         0.0784 
     96 H96        21.9579   -1.2991   -4.2198 H         1 UNK         0.0793 
     97 H97        22.5104   -2.8134   -4.9164 H         1 UNK         0.0793 
     98 H98        22.1983   -2.6979   -3.1851 H         1 UNK         0.0793 
     99 H99        25.4015   -2.7519   -2.5654 H         1 UNK         0.3024 
    100 H100       25.8164   -5.4331   -2.7222 H         1 UNK         0.1171 
    101 H101       26.0832   -6.5642   -4.8909 H         1 UNK         0.0786 
    102 H102       27.6329   -6.5270   -4.0663 H         1 UNK         0.0786 
    103 H103       27.3125   -5.4159   -5.3964 H         1 UNK         0.0786 
    104 H104       28.0255   -3.6632   -3.6866 H         1 UNK         0.2977 
    105 H105       26.0643    1.7318   -5.1193 H         1 UNK         0.3127 
    106 H106       26.3737    4.5862   -4.8356 H         1 UNK         0.0770 
    107 H107       23.8250    2.9106   -5.1380 H         1 UNK         0.0814 
    108 H108       23.9243    4.5583   -4.5384 H         1 UNK         0.0814 
    109 H109       24.6374    3.2485   -3.6093 H         1 UNK         0.0814 
    110 H110       25.8510    2.5097   -7.5893 H         1 UNK         0.2983 
    111 H111       25.1600    4.7951   -9.3764 H         1 UNK         0.0947 
    112 H112       24.5247    3.0357  -10.9883 H         1 UNK         0.0806 
    113 H113       23.6540    2.7812   -9.4864 H         1 UNK         0.0806 
    114 H114       25.0432    1.7709   -9.8846 H         1 UNK         0.0806 
    115 H115       27.8389    3.6948   -8.0305 H         1 UNK         0.3000 
    116 H116       29.9847    3.6604   -8.4076 H         1 UNK         0.0850 
    117 H117       30.9708    5.0893  -10.1439 H         1 UNK         0.0810 
    118 H118       29.5739    5.8990   -9.4581 H         1 UNK         0.0810 
    119 H119       29.4619    5.1302  -11.0416 H         1 UNK         0.0810 
    120 H120       28.4475    1.3127   -9.3011 H         1 UNK         0.3040 
    121 H121       30.0135    0.1568  -11.4936 H         1 UNK         0.0766 
    122 H122       27.5773   -0.4628  -10.9360 H         1 UNK         0.0812 
    123 H123       28.1906   -1.2531   -9.4816 H         1 UNK         0.0812 
    124 H124       28.6709   -1.8310  -11.0657 H         1 UNK         0.0812 
    125 H125       31.1518   -1.9484  -11.0821 H         1 UNK         0.3205 
    126 H126       33.1674   -1.7831   -9.0029 H         1 UNK         0.0754 
    127 H127       33.9472   -3.9237  -10.0391 H         1 UNK         0.0769 
    128 H128       33.7220   -2.6650  -11.2425 H         1 UNK         0.0769 
    129 H129       32.5285   -3.9524  -11.0768 H         1 UNK         0.0769 
    130 H130       31.8255   -1.7279   -7.1759 H         1 UNK         0.2981 
    131 H131       31.0377   -2.4699   -5.2610 H         1 UNK         0.0541 
    132 H132       29.4737   -4.0907   -8.0648 H         1 UNK         0.3459 
    133 H133       27.8487   -3.8237   -7.4586 H         1 UNK         0.3459 
    134 H134       30.8733   -4.8236   -4.5588 H         1 UNK         0.0612 
    135 H135       31.1837   -5.3841   -6.1692 H         1 UNK         0.0612 
    136 H136       34.9564   -3.1926   -4.6145 H         1 UNK         0.0624 
    137 H137       33.8895   -2.5907   -5.8471 H         1 UNK         0.0624 
@<TRIPOS>BOND
     1    1    2 1    
     2    1   72 1    
     3    1   73 1    
     4    1   74 1    
     5    2    3 2    
     6    2    4 am   BACKBONE|DICT|INTERRES
     7    4    5 1    
     8    4   75 1    
     9    5    6 1    
    10    5   35 1    
    11    5   76 1    
    12    6    7 1    
    13    6   77 1    
    14    6   78 1    
    15    7    8 1    
    16    8    9 1    
    17    8   79 1    
    18    8   80 1    
    19    9   10 ar   
    20    9   14 ar   
    21   10   11 ar   
    22   10   81 1    
    23   11   12 ar   
    24   11   71 1    
    25   12   13 ar   
    26   12   82 1    
    27   13   14 ar   
    28   13   15 1    
    29   14   83 1    
    30   15   16 1    
    31   15   84 1    
    32   15   85 1    
    33   16   17 1    
    34   17   18 1    
    35   17   86 1    
    36   17   87 1    
    37   18   19 1    
    38   18   37 1    
    39   18   88 1    
    40   19   20 am   BACKBONE|DICT|INTERRES
    41   19   89 1    
    42   20   21 2    
    43   20   22 1    
    44   22   23 1    
    45   22   24 1    
    46   22   90 1    
    47   23   91 1    
    48   23   92 1    
    49   23   93 1    
    50   24   25 am   BACKBONE|DICT|INTERRES
    51   24   94 1    
    52   25   26 2    
    53   25   27 1    
    54   27   28 1    
    55   27   29 1    
    56   27   95 1    
    57   28   96 1    
    58   28   97 1    
    59   28   98 1    
    60   29   30 am   BACKBONE|DICT|INTERRES
    61   29   99 1    
    62   30   31 2    
    63   30   32 1    
    64   32   33 1    
    65   32   34 1    
    66   32  100 1    
    67   33  101 1    
    68   33  102 1    
    69   33  103 1    
    70   34   35 am   BACKBONE|DICT|INTERRES
    71   34  104 1    
    72   35   36 2    
    73   37   38 2    
    74   37   39 am   BACKBONE|DICT|INTERRES
    75   39   40 1    
    76   39  105 1    
    77   40   41 1    
    78   40   42 1    
    79   40  106 1    
    80   41  107 1    
    81   41  108 1    
    82   41  109 1    
    83   42   43 2    
    84   42   44 am   BACKBONE|DICT|INTERRES
    85   44   45 1    
    86   44  110 1    
    87   45   46 1    
    88   45   47 1    
    89   45  111 1    
    90   46  112 1    
    91   46  113 1    
    92   46  114 1    
    93   47   48 2    
    94   47   49 am   BACKBONE|DICT|INTERRES
    95   49   50 1    
    96   49  115 1    
    97   50   51 1    
    98   50   52 1    
    99   50  116 1    
   100   51  117 1    
   101   51  118 1    
   102   51  119 1    
   103   52   53 2    
   104   52   54 am   BACKBONE|DICT|INTERRES
   105   54   55 1    
   106   54  120 1    
   107   55   56 1    
   108   55   57 1    
   109   55  121 1    
   110   56  122 1    
   111   56  123 1    
   112   56  124 1    
   113   57   58 2    
   114   57   59 am   BACKBONE|DICT|INTERRES
   115   59   60 1    
   116   59  125 1    
   117   60   61 1    
   118   60   62 1    
   119   60  126 1    
   120   61  127 1    
   121   61  128 1    
   122   61  129 1    
   123   62   63 2    
   124   62   64 am   BACKBONE|DICT|INTERRES
   125   64   65 1    
   126   64  130 1    
   127   65   66 1    
   128   65   69 1    
   129   65  131 1    
   130   66   67 am   BACKBONE|DICT|INTERRES
   131   66   68 2    
   132   67  132 1    
   133   67  133 1    
   134   69   70 1    
   135   69  134 1    
   136   69  135 1    
   137   70   71 1    
   138   71  136 1    
   139   71  137 1    
@<TRIPOS>SUBSTRUCTURE
     1 UNK         1 GROUP             0       ****    0 ROOT    
