@<TRIPOS>MOLECULE
3R137
137   139    1
SMALL
USER_CHARGES


@<TRIPOS>ATOM
      1 CA         28.2387   -4.3296    1.6315 C.3       0 UNK        -0.2020 
      2 C          27.7907   -3.4451    0.4784 C.2       0 UNK         0.4855 
      3 O          27.8462   -3.8760   -0.6736 O.2       0 UNK        -0.5197 
      4 N          27.3505   -2.2158    0.7838 N.am      1 UNK        -0.4892 
      5 CA         26.8691   -1.1705   -0.1336 C.3       1 UNK         0.0835 
      6 C6         27.9217   -0.7188   -1.1809 C.3       12 UNK        -0.0855 
      7 S7         29.3581    0.1630   -0.4734 S.3       12 UNK        -0.2931 
      8 C8         30.7406   -1.0212   -0.6434 C.3       12 UNK         0.0378 
      9 C9         31.0003   -1.4386   -2.0871 C.ar      12 UNK        -0.0802 
     10 C10        31.6377   -0.5769   -2.9893 C.ar      12 UNK        -0.0944 
     11 C11        31.8248   -0.9626   -4.3233 C.ar      12 UNK        -0.0787 
     12 C12        31.3753   -2.2150   -4.7481 C.ar      12 UNK        -0.0862 
     13 C13        30.7208   -3.0703   -3.8620 C.ar      12 UNK        -0.0733 
     14 C14        30.5721   -2.6940   -2.5256 C.ar      12 UNK        -0.0832 
     15 C15        30.0672   -4.3478   -4.3665 C.3       12 UNK         0.0240 
     16 S16        28.6465   -4.0217   -5.4761 S.3       12 UNK        -0.2522 
     17 C17        27.8710   -2.5085   -4.7988 C.3       12 UNK        -0.0967 
     18 CA         27.9361   -1.3350   -5.8104 C.3       5 UNK         0.0660 
     19 N          26.8263   -1.4225   -6.7547 N.am      5 UNK        -0.4015 
     20 C          26.5838   -0.6304   -7.8016 C.2       4 UNK         0.4946 
     21 O          27.3699    0.2281   -8.2063 O.2       4 UNK        -0.5353 
     22 CA         25.2051   -0.7840   -8.4756 C.3       4 UNK         0.0277 
     23 CB         25.2379   -1.8780   -9.5605 C.3       4 UNK        -0.1981 
     24 N          24.0905   -0.9763   -7.5233 N.am      4 UNK        -0.4209 
     25 C          23.8499   -2.0234   -6.7172 C.2       3 UNK         0.4942 
     26 O          24.5091   -3.0656   -6.7309 O.2       3 UNK        -0.5208 
     27 CA         22.7177   -1.8608   -5.6839 C.3       3 UNK         0.0250 
     28 CB         21.4071   -2.4523   -6.2263 C.3       3 UNK        -0.1990 
     29 N          23.0437   -2.4998   -4.4002 N.am      3 UNK        -0.4232 
     30 C          24.0982   -2.1800   -3.6349 C.2       2 UNK         0.4993 
     31 O          24.8598   -1.2486   -3.9017 O.2       2 UNK        -0.5286 
     32 CA         24.3644   -3.0708   -2.4029 C.3       2 UNK         0.0209 
     33 CB         24.6471   -4.5239   -2.8272 C.3       2 UNK        -0.1931 
     34 N          25.5020   -2.6063   -1.5998 N.am      2 UNK        -0.4546 
     35 C          25.5205   -1.5313   -0.8024 C.2       1 UNK         0.5154 
     36 O          24.5269   -0.8403   -0.5715 O.2       1 UNK        -0.5181 
     37 C          27.9887    0.0522   -5.1316 C.2       5 UNK         0.5014 
     38 O          29.0072    0.7346   -5.2359 O.2       5 UNK        -0.5248 
     39 N          26.8739    0.4891   -4.5265 N.am      6 UNK        -0.4434 
     40 CA         26.7159    1.8067   -3.8933 C.3       6 UNK         0.0363 
     41 CB         25.3789    1.8544   -3.1366 C.3       6 UNK        -0.1936 
     42 C          26.8068    2.9939   -4.8669 C.2       6 UNK         0.5081 
     43 O          27.1700    4.0920   -4.4456 O.2       6 UNK        -0.5248 
     44 N          26.4975    2.7565   -6.1484 N.am      7 UNK        -0.4718 
     45 CA         26.6669    3.7249   -7.2355 C.3       7 UNK         0.0273 
     46 CB         25.7079    3.3630   -8.3828 C.3       7 UNK        -0.1935 
     47 C          28.1201    3.8029   -7.7448 C.2       7 UNK         0.5018 
     48 O          28.4044    4.6446   -8.5974 O.2       7 UNK        -0.5186 
     49 N          28.9975    2.9185   -7.2422 N.am      8 UNK        -0.4240 
     50 CA         30.3991    2.7208   -7.6211 C.3       8 UNK         0.0235 
     51 CB         31.2485    3.9735   -7.3196 C.3       8 UNK        -0.2000 
     52 C          30.5801    2.2036   -9.0606 C.2       8 UNK         0.4941 
     53 O          31.6675    2.3484   -9.6186 O.2       8 UNK        -0.5273 
     54 N          29.5361    1.5841   -9.6319 N.am      9 UNK        -0.4262 
     55 CA         29.5525    1.0173  -10.9822 C.3       9 UNK         0.0264 
     56 CB         28.1108    0.8806  -11.4981 C.3       9 UNK        -0.1955 
     57 C          30.2821   -0.3340  -11.0349 C.2       9 UNK         0.5031 
     58 O          30.8716   -0.6619  -12.0652 O.2       9 UNK        -0.5390 
     59 N          30.2332   -1.0886   -9.9279 N.am      10 UNK        -0.4204 
     60 CA         30.9332   -2.3651   -9.7664 C.3       10 UNK         0.0237 
     61 CB         30.2409   -3.1820   -8.6660 C.3       10 UNK        -0.1985 
     62 C          32.4339   -2.1990   -9.4587 C.2       10 UNK         0.4970 
     63 O          33.2055   -3.1115   -9.7567 O.2       10 UNK        -0.4914 
     64 N          32.8206   -1.0592   -8.8699 N.am      11 UNK        -0.4285 
     65 CA         34.2196   -0.6839   -8.6143 C.3       11 UNK         0.1007 
     66 C          34.9172   -0.1266   -9.8868 C.2       11 UNK         0.5703 
     67 N          36.2435   -0.1122   -9.9039 N.am      11 UNK        -0.7361 
     68 O          34.2829    0.3051  -10.8473 O.2       11 UNK        -0.4986 
     69 C69        34.3365    0.2975   -7.4150 C.3       12 UNK        -0.0947 
     70 S70        34.1082   -0.5599   -5.8209 S.3       12 UNK        -0.2240 
     71 C71        32.4425   -0.0177   -5.3417 C.3       12 UNK         0.0194 
     72 H72        29.2799   -4.6212    1.4958 H         1 UNK         0.0906 
     73 H73        27.6332   -5.2349    1.6656 H         1 UNK         0.0906 
     74 H74        28.1506   -3.8251    2.5935 H         1 UNK         0.0906 
     75 H75        27.3195   -1.9513    1.7591 H         1 UNK         0.3140 
     76 H76        26.6582   -0.3051    0.4974 H         1 UNK         0.1085 
     77 H77        27.4651   -0.0339   -1.8919 H         1 UNK         0.0836 
     78 H78        28.2575   -1.5659   -1.7694 H         1 UNK         0.0836 
     79 H79        31.6438   -0.5658   -0.2351 H         1 UNK         0.0731 
     80 H80        30.5353   -1.8937   -0.0211 H         1 UNK         0.0731 
     81 H81        31.9595    0.4013   -2.6594 H         1 UNK         0.1312 
     82 H82        31.4919   -2.5029   -5.7827 H         1 UNK         0.1406 
     83 H83        30.0590   -3.3538   -1.8399 H         1 UNK         0.1631 
     84 H84        29.7192   -4.9562   -3.5301 H         1 UNK         0.0717 
     85 H85        30.8046   -4.9504   -4.8984 H         1 UNK         0.0717 
     86 H86        26.8403   -2.7531   -4.5477 H         1 UNK         0.0934 
     87 H87        28.3225   -2.2398   -3.8505 H         1 UNK         0.0934 
     88 H88        28.8587   -1.4153   -6.3864 H         1 UNK         0.0739 
     89 H89        26.1176   -2.1219   -6.5471 H         1 UNK         0.3093 
     90 H90        25.0014    0.1620   -8.9790 H         1 UNK         0.0818 
     91 H91        25.9894   -1.6523  -10.3178 H         1 UNK         0.0819 
     92 H92        25.4823   -2.8585   -9.1511 H         1 UNK         0.0819 
     93 H93        24.2783   -1.9580  -10.0710 H         1 UNK         0.0819 
     94 H94        23.4863   -0.1719   -7.4217 H         1 UNK         0.3041 
     95 H95        22.5695   -0.7960   -5.4917 H         1 UNK         0.0784 
     96 H96        21.1224   -1.9778   -7.1664 H         1 UNK         0.0793 
     97 H97        21.4968   -3.5228   -6.4164 H         1 UNK         0.0793 
     98 H98        20.5835   -2.3024   -5.5277 H         1 UNK         0.0793 
     99 H99        22.4795   -3.2955   -4.1408 H         1 UNK         0.3024 
    100 H100       23.4702   -3.0481   -1.7762 H         1 UNK         0.1171 
    101 H101       25.5121   -4.5894   -3.4889 H         1 UNK         0.0786 
    102 H102       24.8430   -5.1572   -1.9616 H         1 UNK         0.0786 
    103 H103       23.7995   -4.9614   -3.3555 H         1 UNK         0.0786 
    104 H104       26.3601   -3.1478   -1.6538 H         1 UNK         0.2977 
    105 H105       26.0820   -0.1515   -4.4326 H         1 UNK         0.3127 
    106 H106       27.5264    1.9283   -3.1717 H         1 UNK         0.0770 
    107 H107       25.2371    2.8196   -2.6485 H         1 UNK         0.0814 
    108 H108       24.5323    1.6978   -3.8061 H         1 UNK         0.0814 
    109 H109       25.3317    1.0930   -2.3599 H         1 UNK         0.0814 
    110 H110       26.2322    1.8185   -6.4104 H         1 UNK         0.2983 
    111 H111       26.3985    4.7183   -6.8689 H         1 UNK         0.0947 
    112 H112       25.9754    2.4168   -8.8522 H         1 UNK         0.0806 
    113 H113       25.7315    4.1253   -9.1627 H         1 UNK         0.0806 
    114 H114       24.6773    3.2905   -8.0352 H         1 UNK         0.0806 
    115 H115       28.6599    2.2604   -6.5466 H         1 UNK         0.3000 
    116 H116       30.7629    1.9243   -6.9738 H         1 UNK         0.0850 
    117 H117       32.3117    3.7639   -7.4434 H         1 UNK         0.0810 
    118 H118       31.1045    4.3125   -6.2938 H         1 UNK         0.0810 
    119 H119       31.0026    4.8008   -7.9858 H         1 UNK         0.0810 
    120 H120       28.6910    1.4371   -9.0861 H         1 UNK         0.3040 
    121 H121       30.0834    1.7074  -11.6418 H         1 UNK         0.0766 
    122 H122       27.5274    0.1864  -10.8937 H         1 UNK         0.0812 
    123 H123       28.0985    0.5087  -12.5235 H         1 UNK         0.0812 
    124 H124       27.5959    1.8414  -11.4951 H         1 UNK         0.0812 
    125 H125       29.6824   -0.7557   -9.1490 H         1 UNK         0.3205 
    126 H126       30.8521   -2.9253  -10.7006 H         1 UNK         0.0754 
    127 H127       29.1906   -3.3592   -8.8993 H         1 UNK         0.0769 
    128 H128       30.2883   -2.6755   -7.7044 H         1 UNK         0.0769 
    129 H129       30.7143   -4.1572   -8.5436 H         1 UNK         0.0769 
    130 H130       32.1386   -0.3301   -8.7378 H         1 UNK         0.2981 
    131 H131       34.7642   -1.5938   -8.3526 H         1 UNK         0.0541 
    132 H132       36.7181    0.2504  -10.7160 H         1 UNK         0.3459 
    133 H133       36.7798   -0.4594   -9.1239 H         1 UNK         0.3459 
    134 H134       33.6315    1.1254   -7.5118 H         1 UNK         0.0612 
    135 H135       35.3279    0.7525   -7.3776 H         1 UNK         0.0612 
    136 H136       32.4844    1.0032   -4.9592 H         1 UNK         0.0624 
    137 H137       31.8027    0.0022   -6.2241 H         1 UNK         0.0624 
@<TRIPOS>BOND
     1    1    2 1    
     2    1   72 1    
     3    1   73 1    
     4    1   74 1    
     5    2    3 2    
     6    2    4 am   BACKBONE|DICT|INTERRES
     7    4    5 1    
     8    4   75 1    
     9    5    6 1    
    10    5   35 1    
    11    5   76 1    
    12    6    7 1    
    13    6   77 1    
    14    6   78 1    
    15    7    8 1    
    16    8    9 1    
    17    8   79 1    
    18    8   80 1    
    19    9   10 ar   
    20    9   14 ar   
    21   10   11 ar   
    22   10   81 1    
    23   11   12 ar   
    24   11   71 1    
    25   12   13 ar   
    26   12   82 1    
    27   13   14 ar   
    28   13   15 1    
    29   14   83 1    
    30   15   16 1    
    31   15   84 1    
    32   15   85 1    
    33   16   17 1    
    34   17   18 1    
    35   17   86 1    
    36   17   87 1    
    37   18   19 1    
    38   18   37 1    
    39   18   88 1    
    40   19   20 am   BACKBONE|DICT|INTERRES
    41   19   89 1    
    42   20   21 2    
    43   20   22 1    
    44   22   23 1    
    45   22   24 1    
    46   22   90 1    
    47   23   91 1    
    48   23   92 1    
    49   23   93 1    
    50   24   25 am   BACKBONE|DICT|INTERRES
    51   24   94 1    
    52   25   26 2    
    53   25   27 1    
    54   27   28 1    
    55   27   29 1    
    56   27   95 1    
    57   28   96 1    
    58   28   97 1    
    59   28   98 1    
    60   29   30 am   BACKBONE|DICT|INTERRES
    61   29   99 1    
    62   30   31 2    
    63   30   32 1    
    64   32   33 1    
    65   32   34 1    
    66   32  100 1    
    67   33  101 1    
    68   33  102 1    
    69   33  103 1    
    70   34   35 am   BACKBONE|DICT|INTERRES
    71   34  104 1    
    72   35   36 2    
    73   37   38 2    
    74   37   39 am   BACKBONE|DICT|INTERRES
    75   39   40 1    
    76   39  105 1    
    77   40   41 1    
    78   40   42 1    
    79   40  106 1    
    80   41  107 1    
    81   41  108 1    
    82   41  109 1    
    83   42   43 2    
    84   42   44 am   BACKBONE|DICT|INTERRES
    85   44   45 1    
    86   44  110 1    
    87   45   46 1    
    88   45   47 1    
    89   45  111 1    
    90   46  112 1    
    91   46  113 1    
    92   46  114 1    
    93   47   48 2    
    94   47   49 am   BACKBONE|DICT|INTERRES
    95   49   50 1    
    96   49  115 1    
    97   50   51 1    
    98   50   52 1    
    99   50  116 1    
   100   51  117 1    
   101   51  118 1    
   102   51  119 1    
   103   52   53 2    
   104   52   54 am   BACKBONE|DICT|INTERRES
   105   54   55 1    
   106   54  120 1    
   107   55   56 1    
   108   55   57 1    
   109   55  121 1    
   110   56  122 1    
   111   56  123 1    
   112   56  124 1    
   113   57   58 2    
   114   57   59 am   BACKBONE|DICT|INTERRES
   115   59   60 1    
   116   59  125 1    
   117   60   61 1    
   118   60   62 1    
   119   60  126 1    
   120   61  127 1    
   121   61  128 1    
   122   61  129 1    
   123   62   63 2    
   124   62   64 am   BACKBONE|DICT|INTERRES
   125   64   65 1    
   126   64  130 1    
   127   65   66 1    
   128   65   69 1    
   129   65  131 1    
   130   66   67 am   BACKBONE|DICT|INTERRES
   131   66   68 2    
   132   67  132 1    
   133   67  133 1    
   134   69   70 1    
   135   69  134 1    
   136   69  135 1    
   137   70   71 1    
   138   71  136 1    
   139   71  137 1    
@<TRIPOS>SUBSTRUCTURE
     1 UNK         1 GROUP             0       ****    0 ROOT    
