@<TRIPOS>MOLECULE
3R137
137   139    1
SMALL
USER_CHARGES


@<TRIPOS>ATOM
      1 CA         29.1649   -4.4694   -8.3593 C.3       0 UNK        -0.2020 
      2 C          28.6316   -5.0842   -7.0757 C.2       0 UNK         0.4855 
      3 O          27.6866   -5.8720   -7.1211 O.2       0 UNK        -0.5197 
      4 N          29.2357   -4.7369   -5.9353 N.am      1 UNK        -0.4892 
      5 CA         28.8252   -5.1827   -4.6022 C.3       1 UNK         0.0835 
      6 C6         30.0470   -5.3105   -3.6551 C.3       12 UNK        -0.0855 
      7 S7         31.0016   -3.7641   -3.4572 S.3       12 UNK        -0.2931 
      8 C8         30.6204   -3.3001   -1.7384 C.3       12 UNK         0.0378 
      9 C9         30.3946   -1.8021   -1.6257 C.ar      12 UNK        -0.0802 
     10 C10        31.4800   -0.9231   -1.6531 C.ar      12 UNK        -0.0944 
     11 C11        31.2761    0.4585   -1.5941 C.ar      12 UNK        -0.0787 
     12 C12        29.9746    0.9568   -1.4739 C.ar      12 UNK        -0.0862 
     13 C13        28.8825    0.0848   -1.4155 C.ar      12 UNK        -0.0733 
     14 C14        29.0997   -1.2930   -1.4995 C.ar      12 UNK        -0.0832 
     15 C15        27.4698    0.6265   -1.2392 C.3       12 UNK         0.0240 
     16 S16        26.4110    0.3008   -2.6845 S.3       12 UNK        -0.2522 
     17 C17        27.2770    1.2306   -3.9971 C.3       12 UNK        -0.0967 
     18 CA         27.9412    0.2843   -5.0411 C.3       5 UNK         0.0660 
     19 N          26.9575   -0.6126   -5.6596 N.am      5 UNK        -0.4015 
     20 C          25.9827   -0.2653   -6.5153 C.2       4 UNK         0.4946 
     21 O          25.8182    0.8729   -6.9630 O.2       4 UNK        -0.5353 
     22 CA         25.0026   -1.3791   -6.9122 C.3       4 UNK         0.0277 
     23 CB         25.7096   -2.4981   -7.6964 C.3       4 UNK        -0.1981 
     24 N          24.3371   -1.9363   -5.7354 N.am      4 UNK        -0.4209 
     25 C          23.4188   -1.2977   -4.9976 C.2       3 UNK         0.4942 
     26 O          22.9287   -0.2120   -5.3094 O.2       3 UNK        -0.5208 
     27 CA         22.9758   -1.9553   -3.6762 C.3       3 UNK         0.0250 
     28 CB         21.7733   -2.8962   -3.8904 C.3       3 UNK        -0.1990 
     29 N          24.0640   -2.6075   -2.9304 N.am      3 UNK        -0.4232 
     30 C          24.7540   -3.7098   -3.2527 C.2       2 UNK         0.4993 
     31 O          24.5170   -4.4103   -4.2397 O.2       2 UNK        -0.5286 
     32 CA         25.9206   -4.0720   -2.3183 C.3       2 UNK         0.0209 
     33 CB         25.4283   -4.9479   -1.1550 C.3       2 UNK        -0.1931 
     34 N          27.0115   -4.7660   -3.0107 N.am      2 UNK        -0.4546 
     35 C          27.7250   -4.2633   -4.0290 C.2       1 UNK         0.5154 
     36 O          27.5554   -3.1289   -4.4885 O.2       1 UNK        -0.5181 
     37 C          28.7869    1.0340   -6.1005 C.2       5 UNK         0.5014 
     38 O          28.8535    0.6096   -7.2562 O.2       5 UNK        -0.5248 
     39 N          29.3972    2.1621   -5.7121 N.am      6 UNK        -0.4434 
     40 CA         30.0683    3.0949   -6.6238 C.3       6 UNK         0.0363 
     41 CB         30.9538    4.0484   -5.8052 C.3       6 UNK        -0.1936 
     42 C          29.0972    3.8938   -7.5171 C.2       6 UNK         0.5081 
     43 O          29.5519    4.5618   -8.4456 O.2       6 UNK        -0.5248 
     44 N          27.7913    3.8409   -7.2160 N.am      7 UNK        -0.4718 
     45 CA         26.7326    4.4982   -7.9788 C.3       7 UNK         0.0273 
     46 CB         25.4401    4.5370   -7.1458 C.3       7 UNK        -0.1935 
     47 C          26.5008    3.8223   -9.3384 C.2       7 UNK         0.5018 
     48 O          26.5471    4.5050  -10.3628 O.2       7 UNK        -0.5186 
     49 N          26.2566    2.5043   -9.3253 N.am      8 UNK        -0.4240 
     50 CA         25.9859    1.7204  -10.5330 C.3       8 UNK         0.0235 
     51 CB         24.8813    0.6945  -10.2348 C.3       8 UNK        -0.2000 
     52 C          27.2310    1.0055  -11.0801 C.2       8 UNK         0.4941 
     53 O          27.2330    0.6592  -12.2627 O.2       8 UNK        -0.5273 
     54 N          28.2441    0.7643  -10.2376 N.am      9 UNK        -0.4262 
     55 CA         29.4282   -0.0200  -10.5793 C.3       9 UNK         0.0264 
     56 CB         29.1676   -1.5001  -10.2276 C.3       9 UNK        -0.1955 
     57 C          30.6660    0.5918   -9.9053 C.2       9 UNK         0.5031 
     58 O          31.0049    1.7386  -10.2018 O.2       9 UNK        -0.5390 
     59 N          31.3270   -0.1754   -9.0335 N.am      10 UNK        -0.4204 
     60 CA         32.5057    0.2020   -8.2651 C.3       10 UNK         0.0237 
     61 CB         33.7745   -0.1007   -9.0835 C.3       10 UNK        -0.1985 
     62 C          32.4935   -0.5834   -6.9484 C.2       10 UNK         0.4970 
     63 O          31.8016   -1.6007   -6.8482 O.2       10 UNK        -0.4914 
     64 N          33.2907   -0.1127   -5.9837 N.am      11 UNK        -0.4285 
     65 CA         33.4992   -0.7449   -4.6699 C.3       11 UNK         0.1007 
     66 C          34.3397   -2.0586   -4.6984 C.2       11 UNK         0.5703 
     67 N          34.9019   -2.4742   -5.8278 N.am      11 UNK        -0.7361 
     68 O          34.4949   -2.7107   -3.6690 O.2       11 UNK        -0.4986 
     69 C69        34.0988    0.2644   -3.6535 C.3       12 UNK        -0.0947 
     70 S70        33.0233    1.7075   -3.3507 S.3       12 UNK        -0.2240 
     71 C71        32.4593    1.4138   -1.6442 C.3       12 UNK         0.0194 
     72 H72        29.6212   -5.2381   -8.9822 H         1 UNK         0.0906 
     73 H73        28.3489   -4.0168   -8.9215 H         1 UNK         0.0906 
     74 H74        29.9141   -3.7030   -8.1601 H         1 UNK         0.0906 
     75 H75        29.9745   -4.0460   -5.9399 H         1 UNK         0.3140 
     76 H76        28.3847   -6.1783   -4.6956 H         1 UNK         0.1085 
     77 H77        29.7456   -5.7011   -2.6819 H         1 UNK         0.0836 
     78 H78        30.7295   -6.0607   -4.0577 H         1 UNK         0.0836 
     79 H79        29.7387   -3.8342   -1.3819 H         1 UNK         0.0731 
     80 H80        31.4458   -3.6033   -1.0927 H         1 UNK         0.0731 
     81 H81        32.4815   -1.3200   -1.7425 H         1 UNK         0.1312 
     82 H82        29.8142    2.0247   -1.4141 H         1 UNK         0.1406 
     83 H83        28.2570   -1.9676   -1.4712 H         1 UNK         0.1631 
     84 H84        27.4834    1.6995   -1.0415 H         1 UNK         0.0717 
     85 H85        27.0181    0.1616   -0.3619 H         1 UNK         0.0717 
     86 H86        26.5514    1.8876   -4.4802 H         1 UNK         0.0934 
     87 H87        28.0067    1.8859   -3.5217 H         1 UNK         0.0934 
     88 H88        28.6434   -0.3628   -4.5124 H         1 UNK         0.0739 
     89 H89        27.0288   -1.5810   -5.3533 H         1 UNK         0.3093 
     90 H90        24.2386   -0.9398   -7.5566 H         1 UNK         0.0818 
     91 H91        24.9919   -3.2183   -8.0892 H         1 UNK         0.0819 
     92 H92        26.2636   -2.0951   -8.5453 H         1 UNK         0.0819 
     93 H93        26.4186   -3.0438   -7.0737 H         1 UNK         0.0819 
     94 H94        24.6488   -2.8451   -5.4050 H         1 UNK         0.3041 
     95 H95        22.6367   -1.1428   -3.0313 H         1 UNK         0.0784 
     96 H96        20.9323   -2.3547   -4.3255 H         1 UNK         0.0793 
     97 H97        22.0089   -3.7184   -4.5665 H         1 UNK         0.0793 
     98 H98        21.4309   -3.3236   -2.9480 H         1 UNK         0.0793 
     99 H99        24.3628   -2.0968   -2.1105 H         1 UNK         0.3024 
    100 H100       26.3274   -3.1445   -1.9123 H         1 UNK         0.1171 
    101 H101       24.6349   -4.4498   -0.5958 H         1 UNK         0.0786 
    102 H102       26.2318   -5.1622   -0.4499 H         1 UNK         0.0786 
    103 H103       25.0280   -5.8990   -1.5090 H         1 UNK         0.0786 
    104 H104       27.1932   -5.7132   -2.7127 H         1 UNK         0.2977 
    105 H105       29.3393    2.4460   -4.7454 H         1 UNK         0.3127 
    106 H106       30.7100    2.5209   -7.2926 H         1 UNK         0.0770 
    107 H107       30.3693    4.6378   -5.0979 H         1 UNK         0.0814 
    108 H108       31.4804    4.7485   -6.4552 H         1 UNK         0.0814 
    109 H109       31.7121    3.5032   -5.2458 H         1 UNK         0.0814 
    110 H110       27.5001    3.2525   -6.4503 H         1 UNK         0.2983 
    111 H111       27.0404    5.5289   -8.1698 H         1 UNK         0.0947 
    112 H112       24.6351    5.0223   -7.6994 H         1 UNK         0.0806 
    113 H113       25.5812    5.0996   -6.2229 H         1 UNK         0.0806 
    114 H114       25.0943    3.5377   -6.8783 H         1 UNK         0.0806 
    115 H115       26.2070    2.0106   -8.4351 H         1 UNK         0.3000 
    116 H116       25.6154    2.3775  -11.3230 H         1 UNK         0.0850 
    117 H117       24.5711    0.1813  -11.1460 H         1 UNK         0.0810 
    118 H118       25.2237   -0.0675   -9.5371 H         1 UNK         0.0810 
    119 H119       23.9963    1.1693   -9.8107 H         1 UNK         0.0810 
    120 H120       28.1971    1.0831   -9.2755 H         1 UNK         0.3040 
    121 H121       29.6184    0.0441  -11.6527 H         1 UNK         0.0766 
    122 H122       28.9291   -1.6203   -9.1700 H         1 UNK         0.0812 
    123 H123       30.0294   -2.1269  -10.4607 H         1 UNK         0.0812 
    124 H124       28.3271   -1.8948  -10.7989 H         1 UNK         0.0812 
    125 H125       30.9320   -1.0666   -8.7599 H         1 UNK         0.3205 
    126 H126       32.4690    1.2676   -8.0336 H         1 UNK         0.0754 
    127 H127       34.6755    0.1803   -8.5371 H         1 UNK         0.0769 
    128 H128       33.7817    0.4562  -10.0208 H         1 UNK         0.0769 
    129 H129       33.8536   -1.1613   -9.3261 H         1 UNK         0.0769 
    130 H130       33.8301    0.7228   -6.1542 H         1 UNK         0.2981 
    131 H131       32.5154   -1.0412   -4.3022 H         1 UNK         0.0541 
    132 H132       34.7839   -1.9547   -6.6814 H         1 UNK         0.3459 
    133 H133       35.4420   -3.3248   -5.8232 H         1 UNK         0.3459 
    134 H134       35.0598    0.6335   -4.0159 H         1 UNK         0.0612 
    135 H135       34.3140   -0.2202   -2.7003 H         1 UNK         0.0612 
    136 H136       33.2801    1.0349   -1.0336 H         1 UNK         0.0624 
    137 H137       32.1808    2.3735   -1.2065 H         1 UNK         0.0624 
@<TRIPOS>BOND
     1    1    2 1    
     2    1   72 1    
     3    1   73 1    
     4    1   74 1    
     5    2    3 2    
     6    2    4 am   BACKBONE|DICT|INTERRES
     7    4    5 1    
     8    4   75 1    
     9    5    6 1    
    10    5   35 1    
    11    5   76 1    
    12    6    7 1    
    13    6   77 1    
    14    6   78 1    
    15    7    8 1    
    16    8    9 1    
    17    8   79 1    
    18    8   80 1    
    19    9   10 ar   
    20    9   14 ar   
    21   10   11 ar   
    22   10   81 1    
    23   11   12 ar   
    24   11   71 1    
    25   12   13 ar   
    26   12   82 1    
    27   13   14 ar   
    28   13   15 1    
    29   14   83 1    
    30   15   16 1    
    31   15   84 1    
    32   15   85 1    
    33   16   17 1    
    34   17   18 1    
    35   17   86 1    
    36   17   87 1    
    37   18   19 1    
    38   18   37 1    
    39   18   88 1    
    40   19   20 am   BACKBONE|DICT|INTERRES
    41   19   89 1    
    42   20   21 2    
    43   20   22 1    
    44   22   23 1    
    45   22   24 1    
    46   22   90 1    
    47   23   91 1    
    48   23   92 1    
    49   23   93 1    
    50   24   25 am   BACKBONE|DICT|INTERRES
    51   24   94 1    
    52   25   26 2    
    53   25   27 1    
    54   27   28 1    
    55   27   29 1    
    56   27   95 1    
    57   28   96 1    
    58   28   97 1    
    59   28   98 1    
    60   29   30 am   BACKBONE|DICT|INTERRES
    61   29   99 1    
    62   30   31 2    
    63   30   32 1    
    64   32   33 1    
    65   32   34 1    
    66   32  100 1    
    67   33  101 1    
    68   33  102 1    
    69   33  103 1    
    70   34   35 am   BACKBONE|DICT|INTERRES
    71   34  104 1    
    72   35   36 2    
    73   37   38 2    
    74   37   39 am   BACKBONE|DICT|INTERRES
    75   39   40 1    
    76   39  105 1    
    77   40   41 1    
    78   40   42 1    
    79   40  106 1    
    80   41  107 1    
    81   41  108 1    
    82   41  109 1    
    83   42   43 2    
    84   42   44 am   BACKBONE|DICT|INTERRES
    85   44   45 1    
    86   44  110 1    
    87   45   46 1    
    88   45   47 1    
    89   45  111 1    
    90   46  112 1    
    91   46  113 1    
    92   46  114 1    
    93   47   48 2    
    94   47   49 am   BACKBONE|DICT|INTERRES
    95   49   50 1    
    96   49  115 1    
    97   50   51 1    
    98   50   52 1    
    99   50  116 1    
   100   51  117 1    
   101   51  118 1    
   102   51  119 1    
   103   52   53 2    
   104   52   54 am   BACKBONE|DICT|INTERRES
   105   54   55 1    
   106   54  120 1    
   107   55   56 1    
   108   55   57 1    
   109   55  121 1    
   110   56  122 1    
   111   56  123 1    
   112   56  124 1    
   113   57   58 2    
   114   57   59 am   BACKBONE|DICT|INTERRES
   115   59   60 1    
   116   59  125 1    
   117   60   61 1    
   118   60   62 1    
   119   60  126 1    
   120   61  127 1    
   121   61  128 1    
   122   61  129 1    
   123   62   63 2    
   124   62   64 am   BACKBONE|DICT|INTERRES
   125   64   65 1    
   126   64  130 1    
   127   65   66 1    
   128   65   69 1    
   129   65  131 1    
   130   66   67 am   BACKBONE|DICT|INTERRES
   131   66   68 2    
   132   67  132 1    
   133   67  133 1    
   134   69   70 1    
   135   69  134 1    
   136   69  135 1    
   137   70   71 1    
   138   71  136 1    
   139   71  137 1    
@<TRIPOS>SUBSTRUCTURE
     1 UNK         1 GROUP             0       ****    0 ROOT    
