@<TRIPOS>MOLECULE
3R137
137   139    1
SMALL
USER_CHARGES


@<TRIPOS>ATOM
      1 CA         29.1749    0.5850   -1.7355 C.3       0 UNK        -0.2020 
      2 C          28.5590   -0.6541   -2.3642 C.2       0 UNK         0.4855 
      3 O          27.9635   -0.5698   -3.4395 O.2       0 UNK        -0.5197 
      4 N          28.6674   -1.7994   -1.6778 N.am      1 UNK        -0.4892 
      5 CA         28.0677   -3.0766   -2.0810 C.3       1 UNK         0.0835 
      6 C6         28.5697   -4.2473   -1.1963 C.3       12 UNK        -0.0855 
      7 S7         28.5713   -5.8346   -2.0921 S.3       12 UNK        -0.2931 
      8 C8         30.3493   -6.0603   -2.4358 C.3       12 UNK         0.0378 
      9 C9         30.9070   -4.9773   -3.3516 C.ar      12 UNK        -0.0802 
     10 C10        31.9203   -4.1220   -2.9084 C.ar      12 UNK        -0.0944 
     11 C11        32.4500   -3.1488   -3.7613 C.ar      12 UNK        -0.0787 
     12 C12        31.9368   -3.0142   -5.0548 C.ar      12 UNK        -0.0862 
     13 C13        30.9117   -3.8490   -5.5083 C.ar      12 UNK        -0.0733 
     14 C14        30.4215   -4.8464   -4.6549 C.ar      12 UNK        -0.0832 
     15 C15        30.3792   -3.6562   -6.9290 C.3       12 UNK         0.0240 
     16 S16        28.6743   -4.2519   -7.1969 S.3       12 UNK        -0.2522 
     17 C17        27.7276   -3.1643   -6.0789 C.3       12 UNK        -0.0967 
     18 CA         26.9219   -2.1081   -6.8655 C.3       5 UNK         0.0660 
     19 N          25.6904   -1.7039   -6.1873 N.am      5 UNK        -0.4015 
     20 C          24.6719   -1.0973   -6.8166 C.2       4 UNK         0.4946 
     21 O          24.6455   -0.8836   -8.0290 O.2       4 UNK        -0.5353 
     22 CA         23.4844   -0.6308   -5.9605 C.3       4 UNK         0.0277 
     23 CB         22.4336   -1.7463   -5.8443 C.3       4 UNK        -0.1981 
     24 N          23.8597   -0.1815   -4.6205 N.am      4 UNK        -0.4209 
     25 C          24.6929    0.8238   -4.3276 C.2       3 UNK         0.4942 
     26 O          25.2667    1.5017   -5.1800 O.2       3 UNK        -0.5208 
     27 CA         24.9453    1.1200   -2.8377 C.3       3 UNK         0.0250 
     28 CB         23.9219    2.1365   -2.2970 C.3       3 UNK        -0.1990 
     29 N          25.0314   -0.0700   -1.9749 N.am      3 UNK        -0.4232 
     30 C          24.0918   -0.9773   -1.6627 C.2       2 UNK         0.4993 
     31 O          22.9294   -0.9254   -2.0676 O.2       2 UNK        -0.5286 
     32 CA         24.5463   -2.1577   -0.7795 C.3       2 UNK         0.0209 
     33 CB         23.6350   -3.3968   -0.9192 C.3       2 UNK        -0.1931 
     34 N          25.9589   -2.5127   -0.9853 N.am      2 UNK        -0.4546 
     35 C          26.5278   -2.9750   -2.1124 C.2       1 UNK         0.5154 
     36 O          25.9133   -3.2218   -3.1518 O.2       1 UNK        -0.5181 
     37 C          27.7718   -0.8824   -7.2447 C.2       5 UNK         0.5014 
     38 O          28.1207   -0.7466   -8.4162 O.2       5 UNK        -0.5248 
     39 N          28.0326    0.0177   -6.2816 N.am      6 UNK        -0.4434 
     40 CA         28.7604    1.2765   -6.4928 C.3       6 UNK         0.0363 
     41 CB         28.9327    2.0178   -5.1592 C.3       6 UNK        -0.1936 
     42 C          28.1244    2.2024   -7.5448 C.2       6 UNK         0.5081 
     43 O          28.8504    2.9018   -8.2503 O.2       6 UNK        -0.5248 
     44 N          26.7899    2.1709   -7.6551 N.am      7 UNK        -0.4718 
     45 CA         26.0277    2.8589   -8.6987 C.3       7 UNK         0.0273 
     46 CB         24.5337    2.8186   -8.3403 C.3       7 UNK        -0.1935 
     47 C          26.2608    2.2919  -10.1140 C.2       7 UNK         0.5018 
     48 O          26.0957    3.0348  -11.0827 O.2       7 UNK        -0.5186 
     49 N          26.6295    1.0069  -10.2184 N.am      8 UNK        -0.4240 
     50 CA         26.9400    0.3302  -11.4784 C.3       8 UNK         0.0235 
     51 CB         26.4790   -1.1358  -11.4070 C.3       8 UNK        -0.2000 
     52 C          28.4376    0.4208  -11.8100 C.2       8 UNK         0.4941 
     53 O          28.7810    0.7545  -12.9451 O.2       8 UNK        -0.5273 
     54 N          29.2997    0.1335  -10.8270 N.am      9 UNK        -0.4262 
     55 CA         30.7550    0.1920  -10.9358 C.3       9 UNK         0.0264 
     56 CB         31.3029   -1.1630  -11.4194 C.3       9 UNK        -0.1955 
     57 C          31.3128    0.5703   -9.5611 C.2       9 UNK         0.5031 
     58 O          31.1428   -0.2016   -8.6166 O.2       9 UNK        -0.5390 
     59 N          31.9344    1.7551   -9.4754 N.am      10 UNK        -0.4204 
     60 CA         32.3878    2.4149   -8.2458 C.3       10 UNK         0.0237 
     61 CB         33.1478    3.7011   -8.6110 C.3       10 UNK        -0.1985 
     62 C          33.2425    1.5255   -7.3255 C.2       10 UNK         0.4970 
     63 O          34.2884    1.0297   -7.7501 O.2       10 UNK        -0.4914 
     64 N          32.7765    1.3645   -6.0827 N.am      11 UNK        -0.4285 
     65 CA         33.4623    0.6469   -5.0054 C.3       11 UNK         0.1007 
     66 C          34.6471    1.4876   -4.4551 C.2       11 UNK         0.5703 
     67 N          35.8292    0.9004   -4.3260 N.am      11 UNK        -0.7361 
     68 O          34.4923    2.6624   -4.1258 O.2       11 UNK        -0.4986 
     69 C69        32.4323    0.2585   -3.9096 C.3       12 UNK        -0.0947 
     70 S70        33.0753   -0.7302   -2.5141 S.3       12 UNK        -0.2240 
     71 C71        33.6128   -2.2809   -3.3025 C.3       12 UNK         0.0194 
     72 H72        30.1914    0.7250   -2.0955 H         1 UNK         0.0906 
     73 H73        29.2066    0.5088   -0.6489 H         1 UNK         0.0906 
     74 H74        28.5948    1.4709   -1.9924 H         1 UNK         0.0906 
     75 H75        29.1820   -1.8050   -0.8084 H         1 UNK         0.3140 
     76 H76        28.4015   -3.2570   -3.1039 H         1 UNK         0.1085 
     77 H77        29.5879   -4.0528   -0.8554 H         1 UNK         0.0836 
     78 H78        27.9784   -4.3540   -0.2849 H         1 UNK         0.0836 
     79 H79        30.8954   -6.0951   -1.4918 H         1 UNK         0.0731 
     80 H80        30.4955   -7.0326   -2.9083 H         1 UNK         0.0731 
     81 H81        32.3138   -4.2260   -1.9063 H         1 UNK         0.1312 
     82 H82        32.3424   -2.2607   -5.7164 H         1 UNK         0.1406 
     83 H83        29.6466   -5.5217   -4.9898 H         1 UNK         0.1631 
     84 H84        30.4189   -2.6000   -7.2027 H         1 UNK         0.0717 
     85 H85        31.0409   -4.1792   -7.6203 H         1 UNK         0.0717 
     86 H86        27.0521   -3.8131   -5.5195 H         1 UNK         0.0934 
     87 H87        28.3785   -2.7008   -5.3361 H         1 UNK         0.0934 
     88 H88        26.6057   -2.5730   -7.8029 H         1 UNK         0.0739 
     89 H89        25.6416   -1.8516   -5.1874 H         1 UNK         0.3093 
     90 H90        23.0286    0.2196   -6.4717 H         1 UNK         0.0818 
     91 H91        21.5415   -1.3983   -5.3232 H         1 UNK         0.0819 
     92 H92        22.1183   -2.0908   -6.8304 H         1 UNK         0.0819 
     93 H93        22.8215   -2.6108   -5.3037 H         1 UNK         0.0819 
     94 H94        23.4108   -0.6435   -3.8325 H         1 UNK         0.3041 
     95 H95        25.9298    1.5880   -2.7859 H         1 UNK         0.0784 
     96 H96        23.9360    3.0528   -2.8887 H         1 UNK         0.0793 
     97 H97        22.9036    1.7479   -2.3280 H         1 UNK         0.0793 
     98 H98        24.1444    2.4129   -1.2664 H         1 UNK         0.0793 
     99 H99        25.9604   -0.2618   -1.6298 H         1 UNK         0.3024 
    100 H100       24.4622   -1.8053    0.2500 H         1 UNK         0.1171 
    101 H101       23.9788   -4.2158   -0.2875 H         1 UNK         0.0786 
    102 H102       22.6123   -3.1654   -0.6187 H         1 UNK         0.0786 
    103 H103       23.5948   -3.7592   -1.9468 H         1 UNK         0.0786 
    104 H104       26.5702   -2.3235   -0.2025 H         1 UNK         0.2977 
    105 H105       27.7456   -0.1786   -5.3254 H         1 UNK         0.3127 
    106 H106       29.7531    1.0133   -6.8558 H         1 UNK         0.0770 
    107 H107       27.9733    2.1987   -4.6728 H         1 UNK         0.0814 
    108 H108       29.4146    2.9857   -5.3038 H         1 UNK         0.0814 
    109 H109       29.5572    1.4474   -4.4742 H         1 UNK         0.0814 
    110 H110       26.2620    1.6392   -6.9693 H         1 UNK         0.2983 
    111 H111       26.3478    3.9031   -8.7109 H         1 UNK         0.0947 
    112 H112       23.9413    3.3693   -9.0723 H         1 UNK         0.0806 
    113 H113       24.3464    3.2692   -7.3653 H         1 UNK         0.0806 
    114 H114       24.1536    1.7971   -8.3151 H         1 UNK         0.0806 
    115 H115       26.7947    0.4750   -9.3703 H         1 UNK         0.3000 
    116 H116       26.3889    0.8080  -12.2914 H         1 UNK         0.0850 
    117 H117       26.6644   -1.6480  -12.3520 H         1 UNK         0.0810 
    118 H118       25.4099   -1.2034  -11.2041 H         1 UNK         0.0810 
    119 H119       26.9995   -1.6928  -10.6276 H         1 UNK         0.0810 
    120 H120       28.9414   -0.1402   -9.9098 H         1 UNK         0.3040 
    121 H121       31.0379    0.9618  -11.6572 H         1 UNK         0.0766 
    122 H122       30.9312   -1.4088  -12.4142 H         1 UNK         0.0812 
    123 H123       31.0198   -1.9737  -10.7466 H         1 UNK         0.0812 
    124 H124       32.3921   -1.1464  -11.4729 H         1 UNK         0.0812 
    125 H125       32.0348    2.2958  -10.3219 H         1 UNK         0.3205 
    126 H126       31.4884    2.7084   -7.7021 H         1 UNK         0.0754 
    127 H127       33.4871    4.2228   -7.7147 H         1 UNK         0.0769 
    128 H128       32.5147    4.3942   -9.1656 H         1 UNK         0.0769 
    129 H129       34.0293    3.4897   -9.2179 H         1 UNK         0.0769 
    130 H130       31.9336    1.8477   -5.8153 H         1 UNK         0.2981 
    131 H131       33.8612   -0.2701   -5.4404 H         1 UNK         0.0541 
    132 H132       36.6023    1.4340   -3.9608 H         1 UNK         0.3459 
    133 H133       35.9675   -0.0613   -4.5925 H         1 UNK         0.3459 
    134 H134       31.9979    1.1655   -3.4870 H         1 UNK         0.0612 
    135 H135       31.5984   -0.2881   -4.3523 H         1 UNK         0.0612 
    136 H136       34.2137   -2.8350   -2.5798 H         1 UNK         0.0624 
    137 H137       34.2830   -2.0705   -4.1354 H         1 UNK         0.0624 
@<TRIPOS>BOND
     1    1    2 1    
     2    1   72 1    
     3    1   73 1    
     4    1   74 1    
     5    2    3 2    
     6    2    4 am   BACKBONE|DICT|INTERRES
     7    4    5 1    
     8    4   75 1    
     9    5    6 1    
    10    5   35 1    
    11    5   76 1    
    12    6    7 1    
    13    6   77 1    
    14    6   78 1    
    15    7    8 1    
    16    8    9 1    
    17    8   79 1    
    18    8   80 1    
    19    9   10 ar   
    20    9   14 ar   
    21   10   11 ar   
    22   10   81 1    
    23   11   12 ar   
    24   11   71 1    
    25   12   13 ar   
    26   12   82 1    
    27   13   14 ar   
    28   13   15 1    
    29   14   83 1    
    30   15   16 1    
    31   15   84 1    
    32   15   85 1    
    33   16   17 1    
    34   17   18 1    
    35   17   86 1    
    36   17   87 1    
    37   18   19 1    
    38   18   37 1    
    39   18   88 1    
    40   19   20 am   BACKBONE|DICT|INTERRES
    41   19   89 1    
    42   20   21 2    
    43   20   22 1    
    44   22   23 1    
    45   22   24 1    
    46   22   90 1    
    47   23   91 1    
    48   23   92 1    
    49   23   93 1    
    50   24   25 am   BACKBONE|DICT|INTERRES
    51   24   94 1    
    52   25   26 2    
    53   25   27 1    
    54   27   28 1    
    55   27   29 1    
    56   27   95 1    
    57   28   96 1    
    58   28   97 1    
    59   28   98 1    
    60   29   30 am   BACKBONE|DICT|INTERRES
    61   29   99 1    
    62   30   31 2    
    63   30   32 1    
    64   32   33 1    
    65   32   34 1    
    66   32  100 1    
    67   33  101 1    
    68   33  102 1    
    69   33  103 1    
    70   34   35 am   BACKBONE|DICT|INTERRES
    71   34  104 1    
    72   35   36 2    
    73   37   38 2    
    74   37   39 am   BACKBONE|DICT|INTERRES
    75   39   40 1    
    76   39  105 1    
    77   40   41 1    
    78   40   42 1    
    79   40  106 1    
    80   41  107 1    
    81   41  108 1    
    82   41  109 1    
    83   42   43 2    
    84   42   44 am   BACKBONE|DICT|INTERRES
    85   44   45 1    
    86   44  110 1    
    87   45   46 1    
    88   45   47 1    
    89   45  111 1    
    90   46  112 1    
    91   46  113 1    
    92   46  114 1    
    93   47   48 2    
    94   47   49 am   BACKBONE|DICT|INTERRES
    95   49   50 1    
    96   49  115 1    
    97   50   51 1    
    98   50   52 1    
    99   50  116 1    
   100   51  117 1    
   101   51  118 1    
   102   51  119 1    
   103   52   53 2    
   104   52   54 am   BACKBONE|DICT|INTERRES
   105   54   55 1    
   106   54  120 1    
   107   55   56 1    
   108   55   57 1    
   109   55  121 1    
   110   56  122 1    
   111   56  123 1    
   112   56  124 1    
   113   57   58 2    
   114   57   59 am   BACKBONE|DICT|INTERRES
   115   59   60 1    
   116   59  125 1    
   117   60   61 1    
   118   60   62 1    
   119   60  126 1    
   120   61  127 1    
   121   61  128 1    
   122   61  129 1    
   123   62   63 2    
   124   62   64 am   BACKBONE|DICT|INTERRES
   125   64   65 1    
   126   64  130 1    
   127   65   66 1    
   128   65   69 1    
   129   65  131 1    
   130   66   67 am   BACKBONE|DICT|INTERRES
   131   66   68 2    
   132   67  132 1    
   133   67  133 1    
   134   69   70 1    
   135   69  134 1    
   136   69  135 1    
   137   70   71 1    
   138   71  136 1    
   139   71  137 1    
@<TRIPOS>SUBSTRUCTURE
     1 UNK         1 GROUP             0       ****    0 ROOT    
