@<TRIPOS>MOLECULE
3R137
137   139    1
SMALL
USER_CHARGES


@<TRIPOS>ATOM
      1 CA         26.3393   -5.2069    2.1025 C.3       0 UNK        -0.2020 
      2 C          26.3348   -3.8744    1.3693 C.2       0 UNK         0.4855 
      3 O          25.7718   -2.8991    1.8695 O.2       0 UNK        -0.5197 
      4 N          26.9503   -3.8207    0.1815 N.am      1 UNK        -0.4892 
      5 CA         27.0568   -2.6284   -0.6693 C.3       1 UNK         0.0835 
      6 C6         28.2847   -2.7006   -1.6089 C.3       12 UNK        -0.0855 
      7 S7         29.8589   -2.7410   -0.6848 S.3       12 UNK        -0.2931 
      8 C8         30.7519   -4.0884   -1.5239 C.3       12 UNK         0.0378 
      9 C9         31.0347   -3.7468   -2.9796 C.ar      12 UNK        -0.0802 
     10 C10        32.0372   -2.8272   -3.3024 C.ar      12 UNK        -0.0944 
     11 C11        32.2932   -2.4958   -4.6356 C.ar      12 UNK        -0.0787 
     12 C12        31.5265   -3.0865   -5.6443 C.ar      12 UNK        -0.0862 
     13 C13        30.5072   -3.9955   -5.3397 C.ar      12 UNK        -0.0733 
     14 C14        30.2867   -4.3403   -4.0014 C.ar      12 UNK        -0.0832 
     15 C15        29.6917   -4.6013   -6.4836 C.3       12 UNK         0.0240 
     16 S16        27.9762   -5.1024   -6.0810 S.3       12 UNK        -0.2522 
     17 C17        27.1998   -3.5905   -5.4116 C.3       12 UNK        -0.0967 
     18 CA         26.7711   -2.5644   -6.4953 C.3       5 UNK         0.0660 
     19 N          25.5071   -1.8929   -6.1661 N.am      5 UNK        -0.4015 
     20 C          24.8486   -1.0774   -7.0056 C.2       4 UNK         0.4946 
     21 O          25.2209   -0.8251   -8.1514 O.2       4 UNK        -0.5353 
     22 CA         23.5728   -0.4009   -6.4826 C.3       4 UNK         0.0277 
     23 CB         22.3647   -1.3381   -6.6377 C.3       4 UNK        -0.1981 
     24 N          23.6517    0.0631   -5.0968 N.am      4 UNK        -0.4209 
     25 C          24.5489    0.9149   -4.5850 C.2       3 UNK         0.4942 
     26 O          25.5098    1.3570   -5.2136 O.2       3 UNK        -0.5208 
     27 CA         24.3499    1.3447   -3.1193 C.3       3 UNK         0.0250 
     28 CB         23.2405    2.4072   -2.9984 C.3       3 UNK        -0.1990 
     29 N          24.1388    0.2296   -2.1843 N.am      3 UNK        -0.4232 
     30 C          23.1392   -0.6653   -2.1352 C.2       2 UNK         0.4993 
     31 O          22.1424   -0.6144   -2.8586 O.2       2 UNK        -0.5286 
     32 CA         23.2906   -1.8320   -1.1360 C.3       2 UNK         0.0209 
     33 CB         22.6641   -3.1361   -1.6746 C.3       2 UNK        -0.1931 
     34 N          24.6713   -2.0819   -0.6914 N.am      2 UNK        -0.4546 
     35 C          25.7414   -2.3869   -1.4420 C.2       1 UNK         0.5154 
     36 O          25.7155   -2.4708   -2.6725 O.2       1 UNK        -0.5181 
     37 C          27.8848   -1.5337   -6.7503 C.2       5 UNK         0.5014 
     38 O          28.5420   -1.5821   -7.7905 O.2       5 UNK        -0.5248 
     39 N          28.0405   -0.5952   -5.8063 N.am      6 UNK        -0.4434 
     40 CA         29.0414    0.4653   -5.8639 C.3       6 UNK         0.0363 
     41 CB         29.1300    1.1762   -4.5053 C.3       6 UNK        -0.1936 
     42 C          28.7879    1.4621   -7.0021 C.2       6 UNK         0.5081 
     43 O          29.7391    1.8564   -7.6763 O.2       6 UNK        -0.5248 
     44 N          27.5144    1.8171   -7.2218 N.am      7 UNK        -0.4718 
     45 CA         27.0657    2.6744   -8.3205 C.3       7 UNK         0.0273 
     46 CB         25.5739    2.9985   -8.1443 C.3       7 UNK        -0.1935 
     47 C          27.3296    2.0625   -9.7064 C.2       7 UNK         0.5018 
     48 O          27.7432    2.7879  -10.6117 O.2       7 UNK        -0.5186 
     49 N          27.1040    0.7477   -9.8452 N.am      8 UNK        -0.4240 
     50 CA         27.3954   -0.0089  -11.0633 C.3       8 UNK         0.0235 
     51 CB         26.6900   -1.3739  -11.0111 C.3       8 UNK        -0.2000 
     52 C          28.9037   -0.1863  -11.2988 C.2       8 UNK         0.4941 
     53 O          29.3608   -0.0044  -12.4281 O.2       8 UNK        -0.5273 
     54 N          29.6438   -0.5514  -10.2425 N.am      9 UNK        -0.4262 
     55 CA         31.0815   -0.8193  -10.3014 C.3       9 UNK         0.0264 
     56 CB         31.5094   -1.5870   -9.0441 C.3       9 UNK        -0.1955 
     57 C          31.9468    0.4388  -10.4653 C.2       9 UNK         0.5031 
     58 O          32.9651    0.3633  -11.1545 O.2       9 UNK        -0.5390 
     59 N          31.5486    1.5449   -9.8153 N.am      10 UNK        -0.4204 
     60 CA         32.2902    2.8035   -9.6700 C.3       10 UNK         0.0237 
     61 CB         32.4546    3.5201  -11.0276 C.3       10 UNK        -0.1985 
     62 C          33.6225    2.5670   -8.9341 C.2       10 UNK         0.4970 
     63 O          34.6932    2.6934   -9.5314 O.2       10 UNK        -0.4914 
     64 N          33.5121    2.1738   -7.6571 N.am      11 UNK        -0.4285 
     65 CA         34.6188    1.7289   -6.7881 C.3       11 UNK         0.1007 
     66 C          35.7741    2.7521   -6.5767 C.2       11 UNK         0.5703 
     67 N          35.5489    4.0499   -6.7454 N.am      11 UNK        -0.7361 
     68 O          36.8908    2.3579   -6.2490 O.2       11 UNK        -0.4986 
     69 C69        34.1135    1.2290   -5.4057 C.3       12 UNK        -0.0947 
     70 S70        32.6852    0.0983   -5.4857 S.3       12 UNK        -0.2240 
     71 C71        33.3924   -1.4993   -4.9847 C.3       12 UNK         0.0194 
     72 H72        26.8151   -5.0967    3.0766 H         1 UNK         0.0906 
     73 H73        25.3177   -5.5521    2.2592 H         1 UNK         0.0906 
     74 H74        26.8765   -5.9763    1.5482 H         1 UNK         0.0906 
     75 H75        27.3831   -4.6551   -0.1878 H         1 UNK         0.3140 
     76 H76        27.1990   -1.7570   -0.0254 H         1 UNK         0.1085 
     77 H77        28.2055   -3.5774   -2.2523 H         1 UNK         0.0836 
     78 H78        28.3192   -1.8349   -2.2736 H         1 UNK         0.0836 
     79 H79        31.6939   -4.2676   -1.0036 H         1 UNK         0.0731 
     80 H80        30.1772   -5.0124   -1.4421 H         1 UNK         0.0731 
     81 H81        32.6128   -2.3658   -2.5115 H         1 UNK         0.1312 
     82 H82        31.7256   -2.8308   -6.6731 H         1 UNK         0.1406 
     83 H83        29.5198   -5.0596   -3.7500 H         1 UNK         0.1631 
     84 H84        30.2230   -5.4823   -6.8452 H         1 UNK         0.0717 
     85 H85        29.6552   -3.9098   -7.3251 H         1 UNK         0.0717 
     86 H86        27.8352   -3.1454   -4.6448 H         1 UNK         0.0934 
     87 H87        26.3189   -3.9403   -4.8710 H         1 UNK         0.0934 
     88 H88        26.5985   -3.0974   -7.4331 H         1 UNK         0.0739 
     89 H89        25.1452   -2.0288   -5.2319 H         1 UNK         0.3093 
     90 H90        23.3981    0.4805   -7.1024 H         1 UNK         0.0818 
     91 H91        21.4341   -0.8302   -6.3835 H         1 UNK         0.0819 
     92 H92        22.2704   -1.6884   -7.6667 H         1 UNK         0.0819 
     93 H93        22.4506   -2.2178   -5.9984 H         1 UNK         0.0819 
     94 H94        22.9185   -0.2503   -4.4625 H         1 UNK         0.3041 
     95 H95        25.2840    1.8153   -2.8078 H         1 UNK         0.0784 
     96 H96        23.4561    3.2669   -3.6345 H         1 UNK         0.0793 
     97 H97        22.2657    2.0210   -3.2977 H         1 UNK         0.0793 
     98 H98        23.1547    2.7746   -1.9759 H         1 UNK         0.0793 
     99 H99        24.9043    0.0677   -1.5458 H         1 UNK         0.3024 
    100 H100       22.7296   -1.5360   -0.2480 H         1 UNK         0.1171 
    101 H101       22.7598   -3.9487   -0.9544 H         1 UNK         0.0786 
    102 H102       23.1343   -3.4558   -2.6052 H         1 UNK         0.0786 
    103 H103       21.5995   -3.0093   -1.8752 H         1 UNK         0.0786 
    104 H104       24.8168   -2.0857    0.3152 H         1 UNK         0.2977 
    105 H105       27.4102   -0.5858   -5.0182 H         1 UNK         0.3127 
    106 H106       29.9960   -0.0177   -6.0660 H         1 UNK         0.0770 
    107 H107       28.1848    1.6465   -4.2311 H         1 UNK         0.0814 
    108 H108       29.8913    1.9572   -4.5265 H         1 UNK         0.0814 
    109 H109       29.4058    0.4801   -3.7128 H         1 UNK         0.0814 
    110 H110       26.7986    1.4856   -6.5782 H         1 UNK         0.2983 
    111 H111       27.6289    3.6083   -8.2607 H         1 UNK         0.0947 
    112 H112       25.2220    3.6629   -8.9345 H         1 UNK         0.0806 
    113 H113       25.3858    3.4965   -7.1929 H         1 UNK         0.0806 
    114 H114       24.9605    2.0976   -8.1764 H         1 UNK         0.0806 
    115 H115       26.7082    0.2285   -9.0669 H         1 UNK         0.3000 
    116 H116       26.9902    0.5466  -11.9119 H         1 UNK         0.0850 
    117 H117       26.8922   -1.9544  -11.9122 H         1 UNK         0.0810 
    118 H118       25.6088   -1.2568  -10.9360 H         1 UNK         0.0810 
    119 H119       27.0198   -1.9674  -10.1572 H         1 UNK         0.0810 
    120 H120       29.1803   -0.7394   -9.3551 H         1 UNK         0.3040 
    121 H121       31.2680   -1.4612  -11.1653 H         1 UNK         0.0766 
    122 H122       32.5780   -1.8059   -9.0589 H         1 UNK         0.0812 
    123 H123       31.3040   -1.0130   -8.1395 H         1 UNK         0.0812 
    124 H124       30.9825   -2.5380   -8.9684 H         1 UNK         0.0812 
    125 H125       30.7198    1.4804   -9.2261 H         1 UNK         0.3205 
    126 H126       31.6840    3.4487   -9.0320 H         1 UNK         0.0754 
    127 H127       32.9311    4.4923  -10.8968 H         1 UNK         0.0769 
    128 H128       31.4880    3.6923  -11.5013 H         1 UNK         0.0769 
    129 H129       33.0706    2.9497  -11.7234 H         1 UNK         0.0769 
    130 H130       32.5885    2.0793   -7.2592 H         1 UNK         0.2981 
    131 H131       35.0661    0.8731   -7.2970 H         1 UNK         0.0541 
    132 H132       34.6368    4.3786   -7.0179 H         1 UNK         0.3459 
    133 H133       36.3028    4.7043   -6.6082 H         1 UNK         0.3459 
    134 H134       33.8070    2.0778   -4.7913 H         1 UNK         0.0612 
    135 H135       34.9244    0.7429   -4.8602 H         1 UNK         0.0612 
    136 H136       34.0091   -1.8915   -5.7945 H         1 UNK         0.0624 
    137 H137       34.0534   -1.3529   -4.1291 H         1 UNK         0.0624 
@<TRIPOS>BOND
     1    1    2 1    
     2    1   72 1    
     3    1   73 1    
     4    1   74 1    
     5    2    3 2    
     6    2    4 am   BACKBONE|DICT|INTERRES
     7    4    5 1    
     8    4   75 1    
     9    5    6 1    
    10    5   35 1    
    11    5   76 1    
    12    6    7 1    
    13    6   77 1    
    14    6   78 1    
    15    7    8 1    
    16    8    9 1    
    17    8   79 1    
    18    8   80 1    
    19    9   10 ar   
    20    9   14 ar   
    21   10   11 ar   
    22   10   81 1    
    23   11   12 ar   
    24   11   71 1    
    25   12   13 ar   
    26   12   82 1    
    27   13   14 ar   
    28   13   15 1    
    29   14   83 1    
    30   15   16 1    
    31   15   84 1    
    32   15   85 1    
    33   16   17 1    
    34   17   18 1    
    35   17   86 1    
    36   17   87 1    
    37   18   19 1    
    38   18   37 1    
    39   18   88 1    
    40   19   20 am   BACKBONE|DICT|INTERRES
    41   19   89 1    
    42   20   21 2    
    43   20   22 1    
    44   22   23 1    
    45   22   24 1    
    46   22   90 1    
    47   23   91 1    
    48   23   92 1    
    49   23   93 1    
    50   24   25 am   BACKBONE|DICT|INTERRES
    51   24   94 1    
    52   25   26 2    
    53   25   27 1    
    54   27   28 1    
    55   27   29 1    
    56   27   95 1    
    57   28   96 1    
    58   28   97 1    
    59   28   98 1    
    60   29   30 am   BACKBONE|DICT|INTERRES
    61   29   99 1    
    62   30   31 2    
    63   30   32 1    
    64   32   33 1    
    65   32   34 1    
    66   32  100 1    
    67   33  101 1    
    68   33  102 1    
    69   33  103 1    
    70   34   35 am   BACKBONE|DICT|INTERRES
    71   34  104 1    
    72   35   36 2    
    73   37   38 2    
    74   37   39 am   BACKBONE|DICT|INTERRES
    75   39   40 1    
    76   39  105 1    
    77   40   41 1    
    78   40   42 1    
    79   40  106 1    
    80   41  107 1    
    81   41  108 1    
    82   41  109 1    
    83   42   43 2    
    84   42   44 am   BACKBONE|DICT|INTERRES
    85   44   45 1    
    86   44  110 1    
    87   45   46 1    
    88   45   47 1    
    89   45  111 1    
    90   46  112 1    
    91   46  113 1    
    92   46  114 1    
    93   47   48 2    
    94   47   49 am   BACKBONE|DICT|INTERRES
    95   49   50 1    
    96   49  115 1    
    97   50   51 1    
    98   50   52 1    
    99   50  116 1    
   100   51  117 1    
   101   51  118 1    
   102   51  119 1    
   103   52   53 2    
   104   52   54 am   BACKBONE|DICT|INTERRES
   105   54   55 1    
   106   54  120 1    
   107   55   56 1    
   108   55   57 1    
   109   55  121 1    
   110   56  122 1    
   111   56  123 1    
   112   56  124 1    
   113   57   58 2    
   114   57   59 am   BACKBONE|DICT|INTERRES
   115   59   60 1    
   116   59  125 1    
   117   60   61 1    
   118   60   62 1    
   119   60  126 1    
   120   61  127 1    
   121   61  128 1    
   122   61  129 1    
   123   62   63 2    
   124   62   64 am   BACKBONE|DICT|INTERRES
   125   64   65 1    
   126   64  130 1    
   127   65   66 1    
   128   65   69 1    
   129   65  131 1    
   130   66   67 am   BACKBONE|DICT|INTERRES
   131   66   68 2    
   132   67  132 1    
   133   67  133 1    
   134   69   70 1    
   135   69  134 1    
   136   69  135 1    
   137   70   71 1    
   138   71  136 1    
   139   71  137 1    
@<TRIPOS>SUBSTRUCTURE
     1 UNK         1 GROUP             0       ****    0 ROOT    
