@<TRIPOS>MOLECULE
3R137
137   139    1
SMALL
USER_CHARGES


@<TRIPOS>ATOM
      1 CA         26.8398   -0.0370    2.2588 C.3       0 UNK        -0.2020 
      2 C          27.7226   -0.5649    1.1374 C.2       0 UNK         0.4855 
      3 O          28.5586    0.1763    0.6222 O.2       0 UNK        -0.5197 
      4 N          27.5354   -1.8340    0.7620 N.am      1 UNK        -0.4892 
      5 CA         28.2240   -2.5189   -0.3341 C.3       1 UNK         0.0835 
      6 C6         29.3238   -3.4865    0.1757 C.3       12 UNK        -0.0855 
      7 S7         30.7735   -2.5901    0.8226 S.3       12 UNK        -0.2931 
      8 C8         31.9933   -2.8366   -0.5096 C.3       12 UNK         0.0378 
      9 C9         31.5238   -2.3087   -1.8612 C.ar      12 UNK        -0.0802 
     10 C10        31.3950   -3.1807   -2.9474 C.ar      12 UNK        -0.0944 
     11 C11        31.0311   -2.6982   -4.2082 C.ar      12 UNK        -0.0787 
     12 C12        30.7597   -1.3377   -4.3721 C.ar      12 UNK        -0.0862 
     13 C13        30.8762   -0.4566   -3.2933 C.ar      12 UNK        -0.0733 
     14 C14        31.2635   -0.9457   -2.0415 C.ar      12 UNK        -0.0832 
     15 C15        30.6142    1.0287   -3.4942 C.3       12 UNK         0.0240 
     16 S16        29.0118    1.5623   -2.8119 S.3       12 UNK        -0.2522 
     17 C17        27.8165    0.4990   -3.6907 C.3       12 UNK        -0.0967 
     18 CA         27.5773    0.8835   -5.1729 C.3       5 UNK         0.0660 
     19 N          26.9583   -0.2198   -5.9167 N.am      5 UNK        -0.4015 
     20 C          26.7793   -0.2502   -7.2480 C.2       4 UNK         0.4946 
     21 O          27.1432    0.6574   -7.9969 O.2       4 UNK        -0.5353 
     22 CA         26.0452   -1.4607   -7.8593 C.3       4 UNK         0.0277 
     23 CB         27.0542   -2.4412   -8.4749 C.3       4 UNK        -0.1981 
     24 N          25.2026   -2.1963   -6.9160 N.am      4 UNK        -0.4209 
     25 C          24.1314   -1.7128   -6.2712 C.2       3 UNK         0.4942 
     26 O          23.6739   -0.5842   -6.4504 O.2       3 UNK        -0.5208 
     27 CA         23.5171   -2.6243   -5.1887 C.3       3 UNK         0.0250 
     28 CB         22.3695   -3.4602   -5.7773 C.3       3 UNK        -0.1990 
     29 N          24.4911   -3.5160   -4.5360 N.am      3 UNK        -0.4232 
     30 C          25.5969   -3.0955   -3.9043 C.2       2 UNK         0.4993 
     31 O          25.9079   -1.9068   -3.8111 O.2       2 UNK        -0.5286 
     32 CA         26.5590   -4.1715   -3.3752 C.3       2 UNK         0.0209 
     33 CB         27.3711   -4.7694   -4.5369 C.3       2 UNK        -0.1931 
     34 N          27.4923   -3.5983   -2.4019 N.am      2 UNK        -0.4546 
     35 C          27.1628   -3.2803   -1.1444 C.2       1 UNK         0.5154 
     36 O          26.0831   -3.5783   -0.6224 O.2       1 UNK        -0.5181 
     37 C          26.7875    2.2031   -5.3081 C.2       5 UNK         0.5014 
     38 O          27.4024    3.2693   -5.3329 O.2       5 UNK        -0.5248 
     39 N          25.4575    2.1180   -5.4745 N.am      6 UNK        -0.4434 
     40 CA         24.5772    3.2630   -5.7344 C.3       6 UNK         0.0363 
     41 CB         23.1128    2.8006   -5.6771 C.3       6 UNK        -0.1936 
     42 C          24.8647    3.9752   -7.0715 C.2       6 UNK         0.5081 
     43 O          24.5816    5.1675   -7.1891 O.2       6 UNK        -0.5248 
     44 N          25.4338    3.2456   -8.0403 N.am      7 UNK        -0.4718 
     45 CA         25.8902    3.7655   -9.3311 C.3       7 UNK         0.0273 
     46 CB         25.4480    2.7804  -10.4279 C.3       7 UNK        -0.1935 
     47 C          27.4183    3.9622   -9.3731 C.2       7 UNK         0.5018 
     48 O          27.9275    4.4086  -10.4020 O.2       7 UNK        -0.5186 
     49 N          28.1208    3.5978   -8.2864 N.am      8 UNK        -0.4240 
     50 CA         29.5803    3.4816   -8.1557 C.3       8 UNK         0.0235 
     51 CB         30.2431    4.8751   -8.1674 C.3       8 UNK        -0.2000 
     52 C          30.1909    2.5100   -9.1894 C.2       8 UNK         0.4941 
     53 O          31.2655    2.7787   -9.7311 O.2       8 UNK        -0.5273 
     54 N          29.4723    1.4153   -9.4651 N.am      9 UNK        -0.4262 
     55 CA         29.7756    0.4360  -10.5046 C.3       9 UNK         0.0264 
     56 CB         28.4974    0.2315  -11.3404 C.3       9 UNK        -0.1955 
     57 C          30.2647   -0.8880   -9.8966 C.2       9 UNK         0.5031 
     58 O          30.2942   -1.0453   -8.6722 O.2       9 UNK        -0.5390 
     59 N          30.6344   -1.8225  -10.7846 N.am      10 UNK        -0.4204 
     60 CA         31.0987   -3.1971  -10.5467 C.3       10 UNK         0.0237 
     61 CB         30.0450   -4.0395   -9.7983 C.3       10 UNK        -0.1985 
     62 C          32.4737   -3.2833   -9.8662 C.2       10 UNK         0.4970 
     63 O          33.3920   -3.8723  -10.4376 O.2       10 UNK        -0.4914 
     64 N          32.5886   -2.6972   -8.6722 N.am      11 UNK        -0.4285 
     65 CA         33.8155   -2.6610   -7.8631 C.3       11 UNK         0.1007 
     66 C          34.7598   -1.4720   -8.2045 C.2       11 UNK         0.5703 
     67 N          34.3785   -0.5424   -9.0730 N.am      11 UNK        -0.7361 
     68 O          35.8700   -1.4001   -7.6828 O.2       11 UNK        -0.4986 
     69 C69        33.4932   -2.7128   -6.3488 C.3       12 UNK        -0.0947 
     70 S70        32.6235   -4.2475   -5.8709 S.3       12 UNK        -0.2240 
     71 C71        30.9711   -3.6381   -5.4042 C.3       12 UNK         0.0194 
     72 H72        26.1476   -0.7947    2.6256 H         1 UNK         0.0906 
     73 H73        27.4548    0.2930    3.0956 H         1 UNK         0.0906 
     74 H74        26.2566    0.8140    1.9080 H         1 UNK         0.0906 
     75 H75        26.7768   -2.3730    1.1606 H         1 UNK         0.3140 
     76 H76        28.6686   -1.7810   -1.0066 H         1 UNK         0.1085 
     77 H77        29.6570   -4.1611   -0.6154 H         1 UNK         0.0836 
     78 H78        28.9322   -4.1288    0.9667 H         1 UNK         0.0836 
     79 H79        32.2371   -3.8986   -0.5701 H         1 UNK         0.0731 
     80 H80        32.9188   -2.3285   -0.2353 H         1 UNK         0.0731 
     81 H81        31.6144   -4.2329   -2.8253 H         1 UNK         0.1312 
     82 H82        30.4786   -0.9608   -5.3468 H         1 UNK         0.1406 
     83 H83        31.3598   -0.2657   -1.2052 H         1 UNK         0.1631 
     84 H84        30.6612    1.2905   -4.5522 H         1 UNK         0.0717 
     85 H85        31.4062    1.6016   -3.0098 H         1 UNK         0.0717 
     86 H86        28.1694   -0.5297   -3.6185 H         1 UNK         0.0934 
     87 H87        26.8770    0.5143   -3.1345 H         1 UNK         0.0934 
     88 H88        28.5487    1.0488   -5.6423 H         1 UNK         0.0739 
     89 H89        26.5871   -0.9748   -5.3459 H         1 UNK         0.3093 
     90 H90        25.4000   -1.0809   -8.6542 H         1 UNK         0.0818 
     91 H91        27.6490   -1.9547   -9.2456 H         1 UNK         0.0819 
     92 H92        27.7476   -2.8296   -7.7278 H         1 UNK         0.0819 
     93 H93        26.5551   -3.2878   -8.9466 H         1 UNK         0.0819 
     94 H94        25.4903   -3.1389   -6.6996 H         1 UNK         0.3041 
     95 H95        23.1045   -1.9717   -4.4163 H         1 UNK         0.0784 
     96 H96        21.6226   -2.8195   -6.2488 H         1 UNK         0.0793 
     97 H97        22.7248   -4.1589   -6.5358 H         1 UNK         0.0793 
     98 H98        21.8581   -4.0337   -5.0040 H         1 UNK         0.0793 
     99 H99        24.3021   -4.5073   -4.5872 H         1 UNK         0.3024 
    100 H100       25.9775   -4.9606   -2.8925 H         1 UNK         0.1171 
    101 H101       28.0936   -5.5036   -4.1794 H         1 UNK         0.0786 
    102 H102       26.7235   -5.2804   -5.2504 H         1 UNK         0.0786 
    103 H103       27.9166   -4.0001   -5.0852 H         1 UNK         0.0786 
    104 H104       28.3874   -3.2996   -2.7615 H         1 UNK         0.2977 
    105 H105       25.0237    1.2035   -5.4847 H         1 UNK         0.3127 
    106 H106       24.7377    3.9914   -4.9367 H         1 UNK         0.0770 
    107 H107       22.8906    2.0684   -6.4546 H         1 UNK         0.0814 
    108 H108       22.4326    3.6416   -5.8184 H         1 UNK         0.0814 
    109 H109       22.8741    2.3502   -4.7135 H         1 UNK         0.0814 
    110 H110       25.6546    2.2743   -7.8546 H         1 UNK         0.2983 
    111 H111       25.4328    4.7360   -9.5353 H         1 UNK         0.0947 
    112 H112       25.8982    1.7963  -10.2903 H         1 UNK         0.0806 
    113 H113       25.7383    3.1362  -11.4175 H         1 UNK         0.0806 
    114 H114       24.3651    2.6556  -10.4353 H         1 UNK         0.0806 
    115 H115       27.5956    3.2906   -7.4771 H         1 UNK         0.3000 
    116 H116       29.7638    3.0361   -7.1768 H         1 UNK         0.0850 
    117 H117       29.8026    5.5289   -7.4147 H         1 UNK         0.0810 
    118 H118       30.1426    5.3632   -9.1373 H         1 UNK         0.0810 
    119 H119       31.3092    4.8028   -7.9488 H         1 UNK         0.0810 
    120 H120       28.6361    1.2234   -8.9151 H         1 UNK         0.3040 
    121 H121       30.5634    0.8118  -11.1607 H         1 UNK         0.0766 
    122 H122       28.6520   -0.4744  -12.1568 H         1 UNK         0.0812 
    123 H123       28.1724    1.1703  -11.7898 H         1 UNK         0.0812 
    124 H124       27.6720   -0.1425  -10.7343 H         1 UNK         0.0812 
    125 H125       30.6017   -1.5625  -11.7611 H         1 UNK         0.3205 
    126 H126       31.2151   -3.6400  -11.5373 H         1 UNK         0.0754 
    127 H127       30.3646   -5.0795   -9.7202 H         1 UNK         0.0769 
    128 H128       29.0888   -4.0332  -10.3214 H         1 UNK         0.0769 
    129 H129       29.8740   -3.6802   -8.7835 H         1 UNK         0.0769 
    130 H130       31.7885   -2.1759   -8.3237 H         1 UNK         0.2981 
    131 H131       34.3963   -3.5567   -8.0915 H         1 UNK         0.0541 
    132 H132       35.0039    0.2180   -9.2882 H         1 UNK         0.3459 
    133 H133       33.4718   -0.5911   -9.5069 H         1 UNK         0.3459 
    134 H134       34.4103   -2.6724   -5.7586 H         1 UNK         0.0612 
    135 H135       32.9112   -1.8375   -6.0604 H         1 UNK         0.0612 
    136 H136       30.3423   -4.4942   -5.1589 H         1 UNK         0.0624 
    137 H137       30.5115   -3.1509   -6.2659 H         1 UNK         0.0624 
@<TRIPOS>BOND
     1    1    2 1    
     2    1   72 1    
     3    1   73 1    
     4    1   74 1    
     5    2    3 2    
     6    2    4 am   BACKBONE|DICT|INTERRES
     7    4    5 1    
     8    4   75 1    
     9    5    6 1    
    10    5   35 1    
    11    5   76 1    
    12    6    7 1    
    13    6   77 1    
    14    6   78 1    
    15    7    8 1    
    16    8    9 1    
    17    8   79 1    
    18    8   80 1    
    19    9   10 ar   
    20    9   14 ar   
    21   10   11 ar   
    22   10   81 1    
    23   11   12 ar   
    24   11   71 1    
    25   12   13 ar   
    26   12   82 1    
    27   13   14 ar   
    28   13   15 1    
    29   14   83 1    
    30   15   16 1    
    31   15   84 1    
    32   15   85 1    
    33   16   17 1    
    34   17   18 1    
    35   17   86 1    
    36   17   87 1    
    37   18   19 1    
    38   18   37 1    
    39   18   88 1    
    40   19   20 am   BACKBONE|DICT|INTERRES
    41   19   89 1    
    42   20   21 2    
    43   20   22 1    
    44   22   23 1    
    45   22   24 1    
    46   22   90 1    
    47   23   91 1    
    48   23   92 1    
    49   23   93 1    
    50   24   25 am   BACKBONE|DICT|INTERRES
    51   24   94 1    
    52   25   26 2    
    53   25   27 1    
    54   27   28 1    
    55   27   29 1    
    56   27   95 1    
    57   28   96 1    
    58   28   97 1    
    59   28   98 1    
    60   29   30 am   BACKBONE|DICT|INTERRES
    61   29   99 1    
    62   30   31 2    
    63   30   32 1    
    64   32   33 1    
    65   32   34 1    
    66   32  100 1    
    67   33  101 1    
    68   33  102 1    
    69   33  103 1    
    70   34   35 am   BACKBONE|DICT|INTERRES
    71   34  104 1    
    72   35   36 2    
    73   37   38 2    
    74   37   39 am   BACKBONE|DICT|INTERRES
    75   39   40 1    
    76   39  105 1    
    77   40   41 1    
    78   40   42 1    
    79   40  106 1    
    80   41  107 1    
    81   41  108 1    
    82   41  109 1    
    83   42   43 2    
    84   42   44 am   BACKBONE|DICT|INTERRES
    85   44   45 1    
    86   44  110 1    
    87   45   46 1    
    88   45   47 1    
    89   45  111 1    
    90   46  112 1    
    91   46  113 1    
    92   46  114 1    
    93   47   48 2    
    94   47   49 am   BACKBONE|DICT|INTERRES
    95   49   50 1    
    96   49  115 1    
    97   50   51 1    
    98   50   52 1    
    99   50  116 1    
   100   51  117 1    
   101   51  118 1    
   102   51  119 1    
   103   52   53 2    
   104   52   54 am   BACKBONE|DICT|INTERRES
   105   54   55 1    
   106   54  120 1    
   107   55   56 1    
   108   55   57 1    
   109   55  121 1    
   110   56  122 1    
   111   56  123 1    
   112   56  124 1    
   113   57   58 2    
   114   57   59 am   BACKBONE|DICT|INTERRES
   115   59   60 1    
   116   59  125 1    
   117   60   61 1    
   118   60   62 1    
   119   60  126 1    
   120   61  127 1    
   121   61  128 1    
   122   61  129 1    
   123   62   63 2    
   124   62   64 am   BACKBONE|DICT|INTERRES
   125   64   65 1    
   126   64  130 1    
   127   65   66 1    
   128   65   69 1    
   129   65  131 1    
   130   66   67 am   BACKBONE|DICT|INTERRES
   131   66   68 2    
   132   67  132 1    
   133   67  133 1    
   134   69   70 1    
   135   69  134 1    
   136   69  135 1    
   137   70   71 1    
   138   71  136 1    
   139   71  137 1    
@<TRIPOS>SUBSTRUCTURE
     1 UNK         1 GROUP             0       ****    0 ROOT    
