@<TRIPOS>MOLECULE
3R137
137   139    1
SMALL
USER_CHARGES


@<TRIPOS>ATOM
      1 CA         24.8354   -5.8897   -2.8640 C.3       0 UNK        -0.2020 
      2 C          25.4534   -5.4711   -1.5399 C.2       0 UNK         0.4855 
      3 O          24.7563   -5.4378   -0.5257 O.2       0 UNK        -0.5197 
      4 N          26.7597   -5.1737   -1.5351 N.am      1 UNK        -0.4892 
      5 CA         27.5366   -4.8615   -0.3259 C.3       1 UNK         0.0835 
      6 C6         29.0686   -4.9840   -0.5434 C.3       12 UNK        -0.0855 
      7 S7         29.5601   -6.4613   -1.5045 S.3       12 UNK        -0.2931 
      8 C8         30.7507   -5.7754   -2.7057 C.3       12 UNK         0.0378 
      9 C9         30.1532   -4.6839   -3.5866 C.ar      12 UNK        -0.0802 
     10 C10        30.5112   -3.3457   -3.3794 C.ar      12 UNK        -0.0944 
     11 C11        29.9809   -2.3377   -4.1872 C.ar      12 UNK        -0.0787 
     12 C12        29.1146   -2.6779   -5.2239 C.ar      12 UNK        -0.0862 
     13 C13        28.7336   -4.0047   -5.4357 C.ar      12 UNK        -0.0733 
     14 C14        29.2592   -5.0084   -4.6149 C.ar      12 UNK        -0.0832 
     15 C15        27.7647   -4.3331   -6.5640 C.3       12 UNK         0.0240 
     16 S16        26.0196   -4.4201   -6.0276 S.3       12 UNK        -0.2522 
     17 C17        25.7518   -2.8780   -5.0814 C.3       12 UNK        -0.0967 
     18 CA         25.1145   -1.7009   -5.8602 C.3       5 UNK         0.0660 
     19 N          24.6989   -0.6509   -4.9234 N.am      5 UNK        -0.4015 
     20 C          23.8238    0.3273   -5.2034 C.2       4 UNK         0.4946 
     21 O          23.1828    0.3864   -6.2533 O.2       4 UNK        -0.5353 
     22 CA         23.6329    1.4397   -4.1516 C.3       4 UNK         0.0277 
     23 CB         22.3591    1.1845   -3.3292 C.3       4 UNK        -0.1981 
     24 N          24.7669    1.6079   -3.2365 N.am      4 UNK        -0.4209 
     25 C          26.0074    1.9745   -3.5922 C.2       3 UNK         0.4942 
     26 O          26.3284    2.2708   -4.7419 O.2       3 UNK        -0.5208 
     27 CA         27.0921    1.9462   -2.4986 C.3       3 UNK         0.0250 
     28 CB         27.2917    3.3495   -1.9050 C.3       3 UNK        -0.1990 
     29 N          26.8474    0.9860   -1.4127 N.am      3 UNK        -0.4232 
     30 C          26.6688   -0.3325   -1.5740 C.2       2 UNK         0.4993 
     31 O          26.6204   -0.8879   -2.6753 O.2       2 UNK        -0.5286 
     32 CA         26.4509   -1.1585   -0.3032 C.3       2 UNK         0.0209 
     33 CB         24.9936   -1.0475    0.1806 C.3       2 UNK        -0.1931 
     34 N          26.7620   -2.5496   -0.6097 N.am      2 UNK        -0.4546 
     35 C          27.1972   -3.4723    0.2554 C.2       1 UNK         0.5154 
     36 O          27.3495   -3.2619    1.4600 O.2       1 UNK        -0.5181 
     37 C          26.0343   -1.1326   -6.9689 C.2       5 UNK         0.5014 
     38 O          26.0382   -1.6624   -8.0811 O.2       5 UNK        -0.5248 
     39 N          26.7706   -0.0507   -6.6616 N.am      6 UNK        -0.4434 
     40 CA         27.6046    0.7987   -7.5264 C.3       6 UNK         0.0363 
     41 CB         26.7432    1.4970   -8.5954 C.3       6 UNK        -0.1936 
     42 C          28.8356    0.1386   -8.1731 C.2       6 UNK         0.5081 
     43 O          29.8633    0.8068   -8.2889 O.2       6 UNK        -0.5248 
     44 N          28.7095   -1.1211   -8.6132 N.am      7 UNK        -0.4718 
     45 CA         29.7061   -1.9233   -9.3383 C.3       7 UNK         0.0273 
     46 CB         30.8917   -2.2902   -8.4203 C.3       7 UNK        -0.1935 
     47 C          30.1559   -1.2354  -10.6407 C.2       7 UNK         0.5018 
     48 O          31.3471   -0.9940  -10.8340 O.2       7 UNK        -0.5186 
     49 N          29.1769   -0.8624  -11.4805 N.am      8 UNK        -0.4240 
     50 CA         29.3397   -0.0676  -12.7100 C.3       8 UNK         0.0235 
     51 CB         30.0851   -0.8756  -13.7944 C.3       8 UNK        -0.2000 
     52 C          29.9780    1.3137  -12.4433 C.2       8 UNK         0.4941 
     53 O          30.7890    1.7892  -13.2392 O.2       8 UNK        -0.5273 
     54 N          29.6006    1.9086  -11.3022 N.am      9 UNK        -0.4262 
     55 CA         30.0738    3.1720  -10.7269 C.3       9 UNK         0.0264 
     56 CB         29.8289    4.3599  -11.6820 C.3       9 UNK        -0.1955 
     57 C          31.5178    3.1365  -10.1872 C.2       9 UNK         0.5031 
     58 O          32.0352    4.1958   -9.8267 O.2       9 UNK        -0.5390 
     59 N          32.1382    1.9502  -10.0730 N.am      10 UNK        -0.4204 
     60 CA         33.4680    1.7764   -9.4747 C.3       10 UNK         0.0237 
     61 CB         33.9753    0.3463   -9.7125 C.3       10 UNK        -0.1985 
     62 C          33.5116    2.1170   -7.9742 C.2       10 UNK         0.4970 
     63 O          34.5573    2.5582   -7.4954 O.2       10 UNK        -0.4914 
     64 N          32.3857    1.9377   -7.2700 N.am      11 UNK        -0.4285 
     65 CA         32.2077    2.3603   -5.8717 C.3       11 UNK         0.1007 
     66 C          31.9373    3.8858   -5.7010 C.2       11 UNK         0.5703 
     67 N          31.8252    4.6791   -6.7618 N.am      11 UNK        -0.7361 
     68 O          31.8394    4.3667   -4.5745 O.2       11 UNK        -0.4986 
     69 C69        31.1338    1.5115   -5.1420 C.3       12 UNK        -0.0947 
     70 S70        31.5136   -0.2702   -5.1648 S.3       12 UNK        -0.2240 
     71 C71        30.3125   -0.8753   -3.9452 C.3       12 UNK         0.0194 
     72 H72        25.5942   -6.0614   -3.6264 H         1 UNK         0.0906 
     73 H73        24.1489   -5.1236   -3.2222 H         1 UNK         0.0906 
     74 H74        24.2745   -6.8155   -2.7392 H         1 UNK         0.0906 
     75 H75        27.2982   -5.2403   -2.3879 H         1 UNK         0.3140 
     76 H76        27.2555   -5.5954    0.4331 H         1 UNK         0.1085 
     77 H77        29.4540   -4.0886   -1.0294 H         1 UNK         0.0836 
     78 H78        29.5761   -5.0286    0.4221 H         1 UNK         0.0836 
     79 H79        31.1171   -6.5854   -3.3381 H         1 UNK         0.0731 
     80 H80        31.6205   -5.3994   -2.1644 H         1 UNK         0.0731 
     81 H81        31.1960   -3.0865   -2.5835 H         1 UNK         0.1312 
     82 H82        28.7213   -1.8973   -5.8576 H         1 UNK         0.1406 
     83 H83        28.9764   -6.0400   -4.7765 H         1 UNK         0.1631 
     84 H84        28.0381   -5.2892   -7.0123 H         1 UNK         0.0717 
     85 H85        27.8552   -3.5973   -7.3627 H         1 UNK         0.0717 
     86 H86        25.0801   -3.1499   -4.2666 H         1 UNK         0.0934 
     87 H87        26.6608   -2.5649   -4.5780 H         1 UNK         0.0934 
     88 H88        24.2157   -2.0765   -6.3542 H         1 UNK         0.0739 
     89 H89        25.1968   -0.6286   -4.0379 H         1 UNK         0.3093 
     90 H90        23.5083    2.3782   -4.6960 H         1 UNK         0.0818 
     91 H91        21.4885    1.0832   -3.9789 H         1 UNK         0.0819 
     92 H92        22.4343    0.2690   -2.7407 H         1 UNK         0.0819 
     93 H93        22.1548    2.0089   -2.6457 H         1 UNK         0.0819 
     94 H94        24.6015    1.3861   -2.2658 H         1 UNK         0.3041 
     95 H95        28.0236    1.6492   -2.9852 H         1 UNK         0.0784 
     96 H96        27.5014    4.0790   -2.6890 H         1 UNK         0.0793 
     97 H97        26.4053    3.6921   -1.3696 H         1 UNK         0.0793 
     98 H98        28.1338    3.3727   -1.2128 H         1 UNK         0.0793 
     99 H99        26.8498    1.3631   -0.4753 H         1 UNK         0.3024 
    100 H100       27.1315   -0.7955    0.4707 H         1 UNK         0.1171 
    101 H101       24.7330   -0.0160    0.4205 H         1 UNK         0.0786 
    102 H102       24.2908   -1.3971   -0.5771 H         1 UNK         0.0786 
    103 H103       24.8301   -1.6381    1.0823 H         1 UNK         0.0786 
    104 H104       26.7119   -2.7799   -1.5945 H         1 UNK         0.2977 
    105 H105       26.6638    0.3211   -5.7258 H         1 UNK         0.3127 
    106 H106       27.9929    1.5777   -6.8685 H         1 UNK         0.0770 
    107 H107       26.3247    0.7876   -9.3101 H         1 UNK         0.0814 
    108 H108       27.3282    2.2239   -9.1588 H         1 UNK         0.0814 
    109 H109       25.9145    2.0383   -8.1384 H         1 UNK         0.0814 
    110 H110       27.7837   -1.5354   -8.5099 H         1 UNK         0.2983 
    111 H111       29.2163   -2.8526   -9.6333 H         1 UNK         0.0947 
    112 H112       31.4074   -1.4048   -8.0484 H         1 UNK         0.0806 
    113 H113       31.6275   -2.8940   -8.9526 H         1 UNK         0.0806 
    114 H114       30.5658   -2.8726   -7.5609 H         1 UNK         0.0806 
    115 H115       28.2258   -1.0954  -11.2286 H         1 UNK         0.3000 
    116 H116       28.3343    0.1329  -13.0838 H         1 UNK         0.0850 
    117 H117       30.0930   -0.3398  -14.7445 H         1 UNK         0.0810 
    118 H118       29.6066   -1.8387  -13.9712 H         1 UNK         0.0810 
    119 H119       31.1238   -1.0622  -13.5196 H         1 UNK         0.0810 
    120 H120       28.9660    1.3905  -10.7122 H         1 UNK         0.3040 
    121 H121       29.4505    3.3372   -9.8471 H         1 UNK         0.0766 
    122 H122       30.4836    4.3232  -12.5529 H         1 UNK         0.0812 
    123 H123       30.0157    5.3100  -11.1800 H         1 UNK         0.0812 
    124 H124       28.7981    4.3805  -12.0355 H         1 UNK         0.0812 
    125 H125       31.6510    1.1053  -10.3519 H         1 UNK         0.3205 
    126 H126       34.1473    2.4627   -9.9848 H         1 UNK         0.0754 
    127 H127       34.9987    0.2311   -9.3534 H         1 UNK         0.0769 
    128 H128       33.9726    0.0933  -10.7730 H         1 UNK         0.0769 
    129 H129       33.3637   -0.3894   -9.1894 H         1 UNK         0.0769 
    130 H130       31.5630    1.5513   -7.7261 H         1 UNK         0.2981 
    131 H131       33.1512    2.1804   -5.3531 H         1 UNK         0.0541 
    132 H132       31.9334    4.3216   -7.7025 H         1 UNK         0.3459 
    133 H133       31.6569    5.6620   -6.6189 H         1 UNK         0.3459 
    134 H134       30.1527    1.6644   -5.5939 H         1 UNK         0.0612 
    135 H135       31.0462    1.8210   -4.0987 H         1 UNK         0.0612 
    136 H136       29.3940   -0.2894   -4.0092 H         1 UNK         0.0624 
    137 H137       30.7084   -0.7239   -2.9400 H         1 UNK         0.0624 
@<TRIPOS>BOND
     1    1    2 1    
     2    1   72 1    
     3    1   73 1    
     4    1   74 1    
     5    2    3 2    
     6    2    4 am   BACKBONE|DICT|INTERRES
     7    4    5 1    
     8    4   75 1    
     9    5    6 1    
    10    5   35 1    
    11    5   76 1    
    12    6    7 1    
    13    6   77 1    
    14    6   78 1    
    15    7    8 1    
    16    8    9 1    
    17    8   79 1    
    18    8   80 1    
    19    9   10 ar   
    20    9   14 ar   
    21   10   11 ar   
    22   10   81 1    
    23   11   12 ar   
    24   11   71 1    
    25   12   13 ar   
    26   12   82 1    
    27   13   14 ar   
    28   13   15 1    
    29   14   83 1    
    30   15   16 1    
    31   15   84 1    
    32   15   85 1    
    33   16   17 1    
    34   17   18 1    
    35   17   86 1    
    36   17   87 1    
    37   18   19 1    
    38   18   37 1    
    39   18   88 1    
    40   19   20 am   BACKBONE|DICT|INTERRES
    41   19   89 1    
    42   20   21 2    
    43   20   22 1    
    44   22   23 1    
    45   22   24 1    
    46   22   90 1    
    47   23   91 1    
    48   23   92 1    
    49   23   93 1    
    50   24   25 am   BACKBONE|DICT|INTERRES
    51   24   94 1    
    52   25   26 2    
    53   25   27 1    
    54   27   28 1    
    55   27   29 1    
    56   27   95 1    
    57   28   96 1    
    58   28   97 1    
    59   28   98 1    
    60   29   30 am   BACKBONE|DICT|INTERRES
    61   29   99 1    
    62   30   31 2    
    63   30   32 1    
    64   32   33 1    
    65   32   34 1    
    66   32  100 1    
    67   33  101 1    
    68   33  102 1    
    69   33  103 1    
    70   34   35 am   BACKBONE|DICT|INTERRES
    71   34  104 1    
    72   35   36 2    
    73   37   38 2    
    74   37   39 am   BACKBONE|DICT|INTERRES
    75   39   40 1    
    76   39  105 1    
    77   40   41 1    
    78   40   42 1    
    79   40  106 1    
    80   41  107 1    
    81   41  108 1    
    82   41  109 1    
    83   42   43 2    
    84   42   44 am   BACKBONE|DICT|INTERRES
    85   44   45 1    
    86   44  110 1    
    87   45   46 1    
    88   45   47 1    
    89   45  111 1    
    90   46  112 1    
    91   46  113 1    
    92   46  114 1    
    93   47   48 2    
    94   47   49 am   BACKBONE|DICT|INTERRES
    95   49   50 1    
    96   49  115 1    
    97   50   51 1    
    98   50   52 1    
    99   50  116 1    
   100   51  117 1    
   101   51  118 1    
   102   51  119 1    
   103   52   53 2    
   104   52   54 am   BACKBONE|DICT|INTERRES
   105   54   55 1    
   106   54  120 1    
   107   55   56 1    
   108   55   57 1    
   109   55  121 1    
   110   56  122 1    
   111   56  123 1    
   112   56  124 1    
   113   57   58 2    
   114   57   59 am   BACKBONE|DICT|INTERRES
   115   59   60 1    
   116   59  125 1    
   117   60   61 1    
   118   60   62 1    
   119   60  126 1    
   120   61  127 1    
   121   61  128 1    
   122   61  129 1    
   123   62   63 2    
   124   62   64 am   BACKBONE|DICT|INTERRES
   125   64   65 1    
   126   64  130 1    
   127   65   66 1    
   128   65   69 1    
   129   65  131 1    
   130   66   67 am   BACKBONE|DICT|INTERRES
   131   66   68 2    
   132   67  132 1    
   133   67  133 1    
   134   69   70 1    
   135   69  134 1    
   136   69  135 1    
   137   70   71 1    
   138   71  136 1    
   139   71  137 1    
@<TRIPOS>SUBSTRUCTURE
     1 UNK         1 GROUP             0       ****    0 ROOT    
