@<TRIPOS>MOLECULE
3R137
137   139    1
SMALL
USER_CHARGES


@<TRIPOS>ATOM
      1 CA         24.8251   -5.4221   -3.5329 C.3       0 UNK        -0.2020 
      2 C          25.7188   -4.2703   -3.0993 C.2       0 UNK         0.4855 
      3 O          25.9857   -3.3764   -3.9011 O.2       0 UNK        -0.5197 
      4 N          26.1856   -4.2984   -1.8424 N.am      1 UNK        -0.4892 
      5 CA         27.0369   -3.2801   -1.2088 C.3       1 UNK         0.0835 
      6 C6         28.4330   -3.1568   -1.8846 C.3       12 UNK        -0.0855 
      7 S7         29.7555   -2.7788   -0.6840 S.3       12 UNK        -0.2931 
      8 C8         31.2415   -3.3181   -1.5935 C.3       12 UNK         0.0378 
      9 C9         31.4085   -2.5543   -2.8991 C.ar      12 UNK        -0.0802 
     10 C10        31.7342   -1.1947   -2.8783 C.ar      12 UNK        -0.0944 
     11 C11        31.8339   -0.4637   -4.0650 C.ar      12 UNK        -0.0787 
     12 C12        31.5785   -1.1127   -5.2787 C.ar      12 UNK        -0.0862 
     13 C13        31.2984   -2.4810   -5.3217 C.ar      12 UNK        -0.0733 
     14 C14        31.2229   -3.2004   -4.1252 C.ar      12 UNK        -0.0832 
     15 C15        31.1172   -3.1582   -6.6772 C.3       12 UNK         0.0240 
     16 S16        29.7161   -4.3196   -6.7994 S.3       12 UNK        -0.2522 
     17 C17        28.3315   -3.4286   -6.0209 C.3       12 UNK        -0.0967 
     18 CA         27.6480   -2.3637   -6.9174 C.3       5 UNK         0.0660 
     19 N          26.2072   -2.3151   -6.6490 N.am      5 UNK        -0.4015 
     20 C          25.3065   -1.6053   -7.3427 C.2       4 UNK         0.4946 
     21 O          25.5950   -0.8843   -8.2975 O.2       4 UNK        -0.5353 
     22 CA         23.8339   -1.6983   -6.8932 C.3       4 UNK         0.0277 
     23 CB         23.4569   -3.0872   -6.3404 C.3       4 UNK        -0.1981 
     24 N          23.3892   -0.6610   -5.9490 N.am      4 UNK        -0.4209 
     25 C          24.0580   -0.1115   -4.9226 C.2       3 UNK         0.4942 
     26 O          25.2593   -0.2698   -4.7097 O.2       3 UNK        -0.5208 
     27 CA         23.2685    0.7937   -3.9549 C.3       3 UNK         0.0250 
     28 CB         21.7376    0.7941   -4.1738 C.3       3 UNK        -0.1990 
     29 N          23.6071    0.4708   -2.5617 N.am      3 UNK        -0.4232 
     30 C          23.4536   -0.7198   -1.9616 C.2       2 UNK         0.4993 
     31 O          22.8512   -1.6787   -2.4522 O.2       2 UNK        -0.5286 
     32 CA         24.0953   -0.8805   -0.5767 C.3       2 UNK         0.0209 
     33 CB         23.0296   -1.1326    0.5039 C.3       2 UNK        -0.1931 
     34 N          25.0199   -2.0124   -0.6235 N.am      2 UNK        -0.4546 
     35 C          26.2919   -1.9324   -1.0408 C.2       1 UNK         0.5154 
     36 O          26.8538   -0.8631   -1.2863 O.2       1 UNK        -0.5181 
     37 C          28.3125   -0.9803   -6.7510 C.2       5 UNK         0.5014 
     38 O          29.1203   -0.5770   -7.5918 O.2       5 UNK        -0.5248 
     39 N          27.9331   -0.2649   -5.6839 N.am      6 UNK        -0.4434 
     40 CA         28.4088    1.0811   -5.3727 C.3       6 UNK         0.0363 
     41 CB         28.2273    1.3477   -3.8707 C.3       6 UNK        -0.1936 
     42 C          27.7028    2.1571   -6.2132 C.2       6 UNK         0.5081 
     43 O          28.2962    3.2075   -6.4518 O.2       6 UNK        -0.5248 
     44 N          26.4750    1.8776   -6.6779 N.am      7 UNK        -0.4718 
     45 CA         25.7436    2.7225   -7.6297 C.3       7 UNK         0.0273 
     46 CB         24.2541    2.3451   -7.6507 C.3       7 UNK        -0.1935 
     47 C          26.3542    2.6515   -9.0396 C.2       7 UNK         0.5018 
     48 O          26.4922    3.6870   -9.6913 O.2       7 UNK        -0.5186 
     49 N          26.7552    1.4423   -9.4621 N.am      8 UNK        -0.4240 
     50 CA         27.5698    1.2007  -10.6583 C.3       8 UNK         0.0235 
     51 CB         27.5926   -0.3069  -10.9589 C.3       8 UNK        -0.2000 
     52 C          29.0064    1.7414  -10.5208 C.2       8 UNK         0.4941 
     53 O          29.6337    2.0504  -11.5341 O.2       8 UNK        -0.5273 
     54 N          29.4825    1.8492   -9.2718 N.am      9 UNK        -0.4262 
     55 CA         30.7724    2.3832   -8.8300 C.3       9 UNK         0.0264 
     56 CB         30.9087    3.8779   -9.1878 C.3       9 UNK        -0.1955 
     57 C          31.9705    1.5373   -9.2916 C.2       9 UNK         0.5031 
     58 O          33.0541    2.0785   -9.5192 O.2       9 UNK        -0.5390 
     59 N          31.7842    0.2125   -9.3703 N.am      10 UNK        -0.4204 
     60 CA         32.8264   -0.7613   -9.7198 C.3       10 UNK         0.0237 
     61 CB         32.1667   -1.9750  -10.4025 C.3       10 UNK        -0.1985 
     62 C          33.6825   -1.1480   -8.4942 C.2       10 UNK         0.4970 
     63 O          33.9483   -2.3304   -8.2750 O.2       10 UNK        -0.4914 
     64 N          34.0499   -0.1452   -7.6896 N.am      11 UNK        -0.4285 
     65 CA         34.7193   -0.2821   -6.3908 C.3       11 UNK         0.1007 
     66 C          36.2005   -0.7287   -6.5160 C.2       11 UNK         0.5703 
     67 N          36.7277   -1.4129   -5.5096 N.am      11 UNK        -0.7361 
     68 O          36.8860   -0.4289   -7.4925 O.2       11 UNK        -0.4986 
     69 C69        34.5908    1.0132   -5.5393 C.3       12 UNK        -0.0947 
     70 S70        32.9096    1.7378   -5.5059 S.3       12 UNK        -0.2240 
     71 C71        32.1855    1.0232   -3.9882 C.3       12 UNK         0.0194 
     72 H72        25.1520   -5.8087   -4.4979 H         1 UNK         0.0906 
     73 H73        23.7959   -5.0785   -3.6332 H         1 UNK         0.0906 
     74 H74        24.8423   -6.2437   -2.8172 H         1 UNK         0.0906 
     75 H75        25.9290   -5.0731   -1.2451 H         1 UNK         0.3140 
     76 H76        27.1924   -3.6473   -0.1928 H         1 UNK         0.1085 
     77 H77        28.4326   -2.4100   -2.6814 H         1 UNK         0.0836 
     78 H78        28.6948   -4.0997   -2.3674 H         1 UNK         0.0836 
     79 H79        32.1200   -3.1579   -0.9667 H         1 UNK         0.0731 
     80 H80        31.1839   -4.3929   -1.7726 H         1 UNK         0.0731 
     81 H81        31.8904   -0.7012   -1.9286 H         1 UNK         0.1312 
     82 H82        31.6168   -0.5586   -6.2051 H         1 UNK         0.1406 
     83 H83        30.9956   -4.2575   -4.1504 H         1 UNK         0.1631 
     84 H84        32.0321   -3.7014   -6.9153 H         1 UNK         0.0717 
     85 H85        30.9987   -2.4100   -7.4595 H         1 UNK         0.0717 
     86 H86        27.6151   -4.2160   -5.7824 H         1 UNK         0.0934 
     87 H87        28.6214   -3.0232   -5.0508 H         1 UNK         0.0934 
     88 H88        27.7584   -2.6568   -7.9636 H         1 UNK         0.0739 
     89 H89        25.9036   -2.7729   -5.7930 H         1 UNK         0.3093 
     90 H90        23.2474   -1.5493   -7.8013 H         1 UNK         0.0818 
     91 H91        23.8620   -3.8916   -6.9563 H         1 UNK         0.0819 
     92 H92        23.8170   -3.2273   -5.3228 H         1 UNK         0.0819 
     93 H93        22.3748   -3.2161   -6.3184 H         1 UNK         0.0819 
     94 H94        22.4153   -0.4071   -6.0343 H         1 UNK         0.3041 
     95 H95        23.6287    1.8086   -4.1300 H         1 UNK         0.0784 
     96 H96        21.4769    1.1833   -5.1588 H         1 UNK         0.0793 
     97 H97        21.3067   -0.2038   -4.0828 H         1 UNK         0.0793 
     98 H98        21.2406    1.4320   -3.4427 H         1 UNK         0.0793 
     99 H99        24.1479    1.1757   -2.0805 H         1 UNK         0.3024 
    100 H100       24.6410    0.0294   -0.3147 H         1 UNK         0.1171 
    101 H101       22.4478   -2.0326    0.2994 H         1 UNK         0.0786 
    102 H102       23.4830   -1.2434    1.4892 H         1 UNK         0.0786 
    103 H103       22.3295   -0.2980    0.5611 H         1 UNK         0.0786 
    104 H104       24.6119   -2.9290   -0.5100 H         1 UNK         0.2977 
    105 H105       27.1730   -0.6144   -5.1047 H         1 UNK         0.3127 
    106 H106       29.4758    1.1328   -5.5995 H         1 UNK         0.0770 
    107 H107       28.6085    2.3330   -3.6002 H         1 UNK         0.0814 
    108 H108       27.1780    1.3091   -3.5756 H         1 UNK         0.0814 
    109 H109       28.7672    0.6136   -3.2714 H         1 UNK         0.0814 
    110 H110       26.0593    0.9916   -6.4200 H         1 UNK         0.2983 
    111 H111       25.8211    3.7584   -7.2912 H         1 UNK         0.0947 
    112 H112       24.0970    1.3174   -7.9768 H         1 UNK         0.0806 
    113 H113       23.7028    2.9884   -8.3378 H         1 UNK         0.0806 
    114 H114       23.8003    2.4643   -6.6675 H         1 UNK         0.0806 
    115 H115       26.5048    0.6248   -8.9085 H         1 UNK         0.3000 
    116 H116       27.1007    1.7156  -11.4993 H         1 UNK         0.0850 
    117 H117       28.1722   -0.5182  -11.8585 H         1 UNK         0.0810 
    118 H118       26.5862   -0.6932  -11.1220 H         1 UNK         0.0810 
    119 H119       28.0383   -0.8749  -10.1413 H         1 UNK         0.0810 
    120 H120       28.8982    1.4810   -8.5324 H         1 UNK         0.3040 
    121 H121       30.7625    2.3114   -7.7415 H         1 UNK         0.0766 
    122 H122       31.7984    4.3100   -8.7282 H         1 UNK         0.0812 
    123 H123       30.0512    4.4481   -8.8299 H         1 UNK         0.0812 
    124 H124       30.9911    4.0317  -10.2641 H         1 UNK         0.0812 
    125 H125       30.8806   -0.1561   -9.0976 H         1 UNK         0.3205 
    126 H126       33.5059   -0.3097  -10.4458 H         1 UNK         0.0754 
    127 H127       32.9157   -2.7007  -10.7224 H         1 UNK         0.0769 
    128 H128       31.6130   -1.6733  -11.2919 H         1 UNK         0.0769 
    129 H129       31.4736   -2.4918   -9.7391 H         1 UNK         0.0769 
    130 H130       33.8368    0.8002   -7.9813 H         1 UNK         0.2981 
    131 H131       34.2038   -1.0808   -5.8566 H         1 UNK         0.0541 
    132 H132       37.6926   -1.6992   -5.5649 H         1 UNK         0.3459 
    133 H133       36.1796   -1.6541   -4.6986 H         1 UNK         0.3459 
    134 H134       35.2574    1.7840   -5.9306 H         1 UNK         0.0612 
    135 H135       34.9167    0.8269   -4.5146 H         1 UNK         0.0612 
    136 H136       31.2748    1.5756   -3.7554 H         1 UNK         0.0624 
    137 H137       32.8732    1.2023   -3.1604 H         1 UNK         0.0624 
@<TRIPOS>BOND
     1    1    2 1    
     2    1   72 1    
     3    1   73 1    
     4    1   74 1    
     5    2    3 2    
     6    2    4 am   BACKBONE|DICT|INTERRES
     7    4    5 1    
     8    4   75 1    
     9    5    6 1    
    10    5   35 1    
    11    5   76 1    
    12    6    7 1    
    13    6   77 1    
    14    6   78 1    
    15    7    8 1    
    16    8    9 1    
    17    8   79 1    
    18    8   80 1    
    19    9   10 ar   
    20    9   14 ar   
    21   10   11 ar   
    22   10   81 1    
    23   11   12 ar   
    24   11   71 1    
    25   12   13 ar   
    26   12   82 1    
    27   13   14 ar   
    28   13   15 1    
    29   14   83 1    
    30   15   16 1    
    31   15   84 1    
    32   15   85 1    
    33   16   17 1    
    34   17   18 1    
    35   17   86 1    
    36   17   87 1    
    37   18   19 1    
    38   18   37 1    
    39   18   88 1    
    40   19   20 am   BACKBONE|DICT|INTERRES
    41   19   89 1    
    42   20   21 2    
    43   20   22 1    
    44   22   23 1    
    45   22   24 1    
    46   22   90 1    
    47   23   91 1    
    48   23   92 1    
    49   23   93 1    
    50   24   25 am   BACKBONE|DICT|INTERRES
    51   24   94 1    
    52   25   26 2    
    53   25   27 1    
    54   27   28 1    
    55   27   29 1    
    56   27   95 1    
    57   28   96 1    
    58   28   97 1    
    59   28   98 1    
    60   29   30 am   BACKBONE|DICT|INTERRES
    61   29   99 1    
    62   30   31 2    
    63   30   32 1    
    64   32   33 1    
    65   32   34 1    
    66   32  100 1    
    67   33  101 1    
    68   33  102 1    
    69   33  103 1    
    70   34   35 am   BACKBONE|DICT|INTERRES
    71   34  104 1    
    72   35   36 2    
    73   37   38 2    
    74   37   39 am   BACKBONE|DICT|INTERRES
    75   39   40 1    
    76   39  105 1    
    77   40   41 1    
    78   40   42 1    
    79   40  106 1    
    80   41  107 1    
    81   41  108 1    
    82   41  109 1    
    83   42   43 2    
    84   42   44 am   BACKBONE|DICT|INTERRES
    85   44   45 1    
    86   44  110 1    
    87   45   46 1    
    88   45   47 1    
    89   45  111 1    
    90   46  112 1    
    91   46  113 1    
    92   46  114 1    
    93   47   48 2    
    94   47   49 am   BACKBONE|DICT|INTERRES
    95   49   50 1    
    96   49  115 1    
    97   50   51 1    
    98   50   52 1    
    99   50  116 1    
   100   51  117 1    
   101   51  118 1    
   102   51  119 1    
   103   52   53 2    
   104   52   54 am   BACKBONE|DICT|INTERRES
   105   54   55 1    
   106   54  120 1    
   107   55   56 1    
   108   55   57 1    
   109   55  121 1    
   110   56  122 1    
   111   56  123 1    
   112   56  124 1    
   113   57   58 2    
   114   57   59 am   BACKBONE|DICT|INTERRES
   115   59   60 1    
   116   59  125 1    
   117   60   61 1    
   118   60   62 1    
   119   60  126 1    
   120   61  127 1    
   121   61  128 1    
   122   61  129 1    
   123   62   63 2    
   124   62   64 am   BACKBONE|DICT|INTERRES
   125   64   65 1    
   126   64  130 1    
   127   65   66 1    
   128   65   69 1    
   129   65  131 1    
   130   66   67 am   BACKBONE|DICT|INTERRES
   131   66   68 2    
   132   67  132 1    
   133   67  133 1    
   134   69   70 1    
   135   69  134 1    
   136   69  135 1    
   137   70   71 1    
   138   71  136 1    
   139   71  137 1    
@<TRIPOS>SUBSTRUCTURE
     1 UNK         1 GROUP             0       ****    0 ROOT    
