@<TRIPOS>MOLECULE
3R137
137   139    1
SMALL
USER_CHARGES


@<TRIPOS>ATOM
      1 CA         26.4269   -7.7098   -3.6946 C.3       0 UNK        -0.2020 
      2 C          26.2658   -6.5925   -2.6745 C.2       0 UNK         0.4855 
      3 O          25.5129   -6.7458   -1.7118 O.2       0 UNK        -0.5197 
      4 N          26.9764   -5.4755   -2.8728 N.am      1 UNK        -0.4892 
      5 CA         26.9109   -4.2774   -2.0264 C.3       1 UNK         0.0835 
      6 C6         28.1107   -3.3261   -2.2654 C.3       12 UNK        -0.0855 
      7 S7         29.7334   -4.1518   -2.1183 S.3       12 UNK        -0.2931 
      8 C8         30.5936   -3.5353   -3.6134 C.3       12 UNK         0.0378 
      9 C9         30.8866   -2.0310   -3.6490 C.ar      12 UNK        -0.0802 
     10 C10        31.3963   -1.4774   -4.8289 C.ar      12 UNK        -0.0944 
     11 C11        31.6888   -0.1116   -4.9138 C.ar      12 UNK        -0.0787 
     12 C12        31.4420    0.7150   -3.8149 C.ar      12 UNK        -0.0862 
     13 C13        30.9070    0.1840   -2.6395 C.ar      12 UNK        -0.0733 
     14 C14        30.6639   -1.1877   -2.5524 C.ar      12 UNK        -0.0832 
     15 C15        30.5464    1.0917   -1.4732 C.3       12 UNK         0.0240 
     16 S16        29.0986    2.1390   -1.8428 S.3       12 UNK        -0.2522 
     17 C17        27.8447    0.9437   -2.4367 C.3       12 UNK        -0.0967 
     18 CA         27.7480    0.9053   -3.9858 C.3       5 UNK         0.0660 
     19 N          27.0105   -0.2591   -4.4828 N.am      5 UNK        -0.4015 
     20 C          27.1556   -0.7585   -5.7214 C.2       4 UNK         0.4946 
     21 O          28.0187   -0.3758   -6.5126 O.2       4 UNK        -0.5353 
     22 CA         26.1537   -1.8315   -6.1898 C.3       4 UNK         0.0277 
     23 CB         26.7538   -3.2425   -6.0908 C.3       4 UNK        -0.1981 
     24 N          24.8714   -1.7838   -5.4805 N.am      4 UNK        -0.4209 
     25 C          23.9668   -0.8068   -5.6477 C.2       3 UNK         0.4942 
     26 O          24.1073    0.1123   -6.4512 O.2       3 UNK        -0.5208 
     27 CA         22.7258   -0.8064   -4.7368 C.3       3 UNK         0.0250 
     28 CB         21.5673   -1.5571   -5.4112 C.3       3 UNK        -0.1990 
     29 N          22.9597   -1.3674   -3.4045 N.am      3 UNK        -0.4232 
     30 C          23.8919   -0.9556   -2.5337 C.2       2 UNK         0.4993 
     31 O          24.6605   -0.0157   -2.7491 O.2       2 UNK        -0.5286 
     32 CA         24.0499   -1.7777   -1.2398 C.3       2 UNK         0.0209 
     33 CB         22.8034   -2.6176   -0.8782 C.3       2 UNK        -0.1931 
     34 N          25.2439   -2.6366   -1.2737 N.am      2 UNK        -0.4546 
     35 C          25.5817   -3.5174   -2.2303 C.2       1 UNK         0.5154 
     36 O          24.9210   -3.7013   -3.2576 O.2       1 UNK        -0.5181 
     37 C          27.1419    2.1969   -4.5658 C.2       5 UNK         0.5014 
     38 O          27.8891    3.0496   -5.0453 O.2       5 UNK        -0.5248 
     39 N          25.8029    2.3000   -4.5557 N.am      6 UNK        -0.4434 
     40 CA         25.0528    3.4336   -5.1098 C.3       6 UNK         0.0363 
     41 CB         23.5592    3.2791   -4.7827 C.3       6 UNK        -0.1936 
     42 C          25.2650    3.6215   -6.6239 C.2       6 UNK         0.5081 
     43 O          25.4503    4.7519   -7.0750 O.2       6 UNK        -0.5248 
     44 N          25.2655    2.5115   -7.3741 N.am      7 UNK        -0.4718 
     45 CA         25.5666    2.4701   -8.8082 C.3       7 UNK         0.0273 
     46 CB         25.0189    1.1578   -9.3936 C.3       7 UNK        -0.1935 
     47 C          27.0681    2.6014   -9.1256 C.2       7 UNK         0.5018 
     48 O          27.4045    2.8863  -10.2754 O.2       7 UNK        -0.5186 
     49 N          27.9267    2.3774   -8.1185 N.am      8 UNK        -0.4240 
     50 CA         29.3917    2.3427   -8.1640 C.3       8 UNK         0.0235 
     51 CB         29.9688    3.7471   -8.4354 C.3       8 UNK        -0.2000 
     52 C          29.9039    1.2767   -9.1492 C.2       8 UNK         0.4941 
     53 O          30.5226    1.6103  -10.1625 O.2       8 UNK        -0.5273 
     54 N          29.5949    0.0089   -8.8464 N.am      9 UNK        -0.4262 
     55 CA         29.7982   -1.1741   -9.6915 C.3       9 UNK         0.0264 
     56 CB         28.9766   -2.3345   -9.1013 C.3       9 UNK        -0.1955 
     57 C          31.2719   -1.5718   -9.9427 C.2       9 UNK         0.5031 
     58 O          31.6572   -2.7068   -9.6557 O.2       9 UNK        -0.5390 
     59 N          32.0546   -0.6444  -10.5105 N.am      10 UNK        -0.4204 
     60 CA         33.4096   -0.8108  -11.0575 C.3       10 UNK         0.0237 
     61 CB         33.3554   -1.6478  -12.3539 C.3       10 UNK        -0.1985 
     62 C          34.4532   -1.3426  -10.0527 C.2       10 UNK         0.4970 
     63 O          35.3297   -2.1233  -10.4308 O.2       10 UNK        -0.4914 
     64 N          34.3473   -0.9059   -8.7933 N.am      11 UNK        -0.4285 
     65 CA         35.3040   -1.2037   -7.7187 C.3       11 UNK         0.1007 
     66 C          36.6797   -0.5006   -7.9053 C.2       11 UNK         0.5703 
     67 N          37.7245   -1.0086   -7.2650 N.am      11 UNK        -0.7361 
     68 O          36.8080    0.5058   -8.6016 O.2       11 UNK        -0.4986 
     69 C69        34.6854   -0.9399   -6.3203 C.3       12 UNK        -0.0947 
     70 S70        34.0403    0.7550   -6.0991 S.3       12 UNK        -0.2240 
     71 C71        32.2444    0.4850   -6.1972 C.3       12 UNK         0.0194 
     72 H72        25.4667   -7.9342   -4.1585 H         1 UNK         0.0906 
     73 H73        27.1303   -7.4442   -4.4837 H         1 UNK         0.0906 
     74 H74        26.7900   -8.6141   -3.2070 H         1 UNK         0.0906 
     75 H75        27.5866   -5.4100   -3.6736 H         1 UNK         0.3140 
     76 H76        26.9419   -4.6099   -0.9860 H         1 UNK         0.1085 
     77 H77        28.0916   -2.5148   -1.5361 H         1 UNK         0.0836 
     78 H78        28.0415   -2.8460   -3.2422 H         1 UNK         0.0836 
     79 H79        30.0038   -3.8073   -4.4903 H         1 UNK         0.0731 
     80 H80        31.5403   -4.0699   -3.7023 H         1 UNK         0.0731 
     81 H81        31.5687   -2.1145   -5.6857 H         1 UNK         0.1312 
     82 H82        31.6384    1.7764   -3.8834 H         1 UNK         0.1406 
     83 H83        30.2775   -1.5818   -1.6248 H         1 UNK         0.1631 
     84 H84        31.3969    1.7321   -1.2353 H         1 UNK         0.0717 
     85 H85        30.3407    0.5093   -0.5738 H         1 UNK         0.0717 
     86 H86        28.0886   -0.0451   -2.0485 H         1 UNK         0.0934 
     87 H87        26.8835    1.2031   -1.9898 H         1 UNK         0.0934 
     88 H88        28.7630    0.8296   -4.3777 H         1 UNK         0.0739 
     89 H89        26.2279   -0.5631   -3.9150 H         1 UNK         0.3093 
     90 H90        25.9583   -1.6333   -7.2460 H         1 UNK         0.0818 
     91 H91        27.7322   -3.2924   -6.5674 H         1 UNK         0.0819 
     92 H92        26.1158   -3.9755   -6.5846 H         1 UNK         0.0819 
     93 H93        26.8820   -3.5599   -5.0597 H         1 UNK         0.0819 
     94 H94        24.7040   -2.5006   -4.7778 H         1 UNK         0.3041 
     95 H95        22.4233    0.2328   -4.5985 H         1 UNK         0.0784 
     96 H96        21.3560   -1.1425   -6.3981 H         1 UNK         0.0793 
     97 H97        21.7952   -2.6157   -5.5440 H         1 UNK         0.0793 
     98 H98        20.6499   -1.4805   -4.8272 H         1 UNK         0.0793 
     99 H99        22.4145   -2.1803   -3.1564 H         1 UNK         0.3024 
    100 H100       24.2018   -1.0493   -0.4411 H         1 UNK         0.1171 
    101 H101       22.9117   -3.0647    0.1101 H         1 UNK         0.0786 
    102 H102       21.9041   -2.0005   -0.8493 H         1 UNK         0.0786 
    103 H103       22.6296   -3.4310   -1.5838 H         1 UNK         0.0786 
    104 H104       25.8681   -2.5280   -0.4860 H         1 UNK         0.2977 
    105 H105       25.2639    1.5599   -4.1205 H         1 UNK         0.3127 
    106 H106       25.4161    4.3356   -4.6127 H         1 UNK         0.0770 
    107 H107       23.1228    2.4155   -5.2839 H         1 UNK         0.0814 
    108 H108       22.9996    4.1572   -5.1076 H         1 UNK         0.0814 
    109 H109       23.3936    3.1674   -3.7110 H         1 UNK         0.0814 
    110 H110       25.0086    1.6261   -6.9393 H         1 UNK         0.2983 
    111 H111       25.0549    3.3038   -9.2941 H         1 UNK         0.0947 
    112 H112       25.1809    1.1109  -10.4713 H         1 UNK         0.0806 
    113 H113       23.9463    1.0638   -9.2225 H         1 UNK         0.0806 
    114 H114       25.5054    0.2873   -8.9516 H         1 UNK         0.0806 
    115 H115       27.5255    2.1620   -7.2156 H         1 UNK         0.3000 
    116 H116       29.7110    2.0396   -7.1667 H         1 UNK         0.0850 
    117 H117       31.0586    3.7337   -8.3942 H         1 UNK         0.0810 
    118 H118       29.6237    4.4647   -7.6908 H         1 UNK         0.0810 
    119 H119       29.6852    4.1219   -9.4194 H         1 UNK         0.0810 
    120 H120       29.0745   -0.1525   -7.9833 H         1 UNK         0.3040 
    121 H121       29.3742   -0.9443  -10.6712 H         1 UNK         0.0766 
    122 H122       27.9250   -2.0670   -8.9974 H         1 UNK         0.0812 
    123 H123       29.3518   -2.6211   -8.1185 H         1 UNK         0.0812 
    124 H124       29.0230   -3.2171   -9.7406 H         1 UNK         0.0812 
    125 H125       31.6340    0.2791  -10.6243 H         1 UNK         0.3205 
    126 H126       33.7473    0.1902  -11.3298 H         1 UNK         0.0754 
    127 H127       34.3276   -1.6741  -12.8479 H         1 UNK         0.0769 
    128 H128       32.6451   -1.2293  -13.0670 H         1 UNK         0.0769 
    129 H129       33.0621   -2.6793  -12.1546 H         1 UNK         0.0769 
    130 H130       33.6288   -0.2355   -8.5700 H         1 UNK         0.2981 
    131 H131       35.5052   -2.2755   -7.7749 H         1 UNK         0.0541 
    132 H132       38.6232   -0.5631   -7.3651 H         1 UNK         0.3459 
    133 H133       37.6343   -1.8286   -6.6855 H         1 UNK         0.3459 
    134 H134       33.8844   -1.6574   -6.1455 H         1 UNK         0.0612 
    135 H135       35.4154   -1.1316   -5.5322 H         1 UNK         0.0612 
    136 H136       31.7708    1.4488   -6.3811 H         1 UNK         0.0624 
    137 H137       32.0063   -0.1460   -7.0545 H         1 UNK         0.0624 
@<TRIPOS>BOND
     1    1    2 1    
     2    1   72 1    
     3    1   73 1    
     4    1   74 1    
     5    2    3 2    
     6    2    4 am   BACKBONE|DICT|INTERRES
     7    4    5 1    
     8    4   75 1    
     9    5    6 1    
    10    5   35 1    
    11    5   76 1    
    12    6    7 1    
    13    6   77 1    
    14    6   78 1    
    15    7    8 1    
    16    8    9 1    
    17    8   79 1    
    18    8   80 1    
    19    9   10 ar   
    20    9   14 ar   
    21   10   11 ar   
    22   10   81 1    
    23   11   12 ar   
    24   11   71 1    
    25   12   13 ar   
    26   12   82 1    
    27   13   14 ar   
    28   13   15 1    
    29   14   83 1    
    30   15   16 1    
    31   15   84 1    
    32   15   85 1    
    33   16   17 1    
    34   17   18 1    
    35   17   86 1    
    36   17   87 1    
    37   18   19 1    
    38   18   37 1    
    39   18   88 1    
    40   19   20 am   BACKBONE|DICT|INTERRES
    41   19   89 1    
    42   20   21 2    
    43   20   22 1    
    44   22   23 1    
    45   22   24 1    
    46   22   90 1    
    47   23   91 1    
    48   23   92 1    
    49   23   93 1    
    50   24   25 am   BACKBONE|DICT|INTERRES
    51   24   94 1    
    52   25   26 2    
    53   25   27 1    
    54   27   28 1    
    55   27   29 1    
    56   27   95 1    
    57   28   96 1    
    58   28   97 1    
    59   28   98 1    
    60   29   30 am   BACKBONE|DICT|INTERRES
    61   29   99 1    
    62   30   31 2    
    63   30   32 1    
    64   32   33 1    
    65   32   34 1    
    66   32  100 1    
    67   33  101 1    
    68   33  102 1    
    69   33  103 1    
    70   34   35 am   BACKBONE|DICT|INTERRES
    71   34  104 1    
    72   35   36 2    
    73   37   38 2    
    74   37   39 am   BACKBONE|DICT|INTERRES
    75   39   40 1    
    76   39  105 1    
    77   40   41 1    
    78   40   42 1    
    79   40  106 1    
    80   41  107 1    
    81   41  108 1    
    82   41  109 1    
    83   42   43 2    
    84   42   44 am   BACKBONE|DICT|INTERRES
    85   44   45 1    
    86   44  110 1    
    87   45   46 1    
    88   45   47 1    
    89   45  111 1    
    90   46  112 1    
    91   46  113 1    
    92   46  114 1    
    93   47   48 2    
    94   47   49 am   BACKBONE|DICT|INTERRES
    95   49   50 1    
    96   49  115 1    
    97   50   51 1    
    98   50   52 1    
    99   50  116 1    
   100   51  117 1    
   101   51  118 1    
   102   51  119 1    
   103   52   53 2    
   104   52   54 am   BACKBONE|DICT|INTERRES
   105   54   55 1    
   106   54  120 1    
   107   55   56 1    
   108   55   57 1    
   109   55  121 1    
   110   56  122 1    
   111   56  123 1    
   112   56  124 1    
   113   57   58 2    
   114   57   59 am   BACKBONE|DICT|INTERRES
   115   59   60 1    
   116   59  125 1    
   117   60   61 1    
   118   60   62 1    
   119   60  126 1    
   120   61  127 1    
   121   61  128 1    
   122   61  129 1    
   123   62   63 2    
   124   62   64 am   BACKBONE|DICT|INTERRES
   125   64   65 1    
   126   64  130 1    
   127   65   66 1    
   128   65   69 1    
   129   65  131 1    
   130   66   67 am   BACKBONE|DICT|INTERRES
   131   66   68 2    
   132   67  132 1    
   133   67  133 1    
   134   69   70 1    
   135   69  134 1    
   136   69  135 1    
   137   70   71 1    
   138   71  136 1    
   139   71  137 1    
@<TRIPOS>SUBSTRUCTURE
     1 UNK         1 GROUP             0       ****    0 ROOT    
