@<TRIPOS>MOLECULE
3R137
137   139    1
SMALL
USER_CHARGES


@<TRIPOS>ATOM
      1 CA         26.8131   -6.0583   -6.2555 C.3       0 UNK        -0.2020 
      2 C          26.7636   -5.4340   -4.8698 C.2       0 UNK         0.4855 
      3 O          25.6767   -5.1388   -4.3723 O.2       0 UNK        -0.5197 
      4 N          27.9302   -5.2232   -4.2442 N.am      1 UNK        -0.4892 
      5 CA         28.0729   -4.6317   -2.9092 C.3       1 UNK         0.0835 
      6 C6         29.5424   -4.6700   -2.4271 C.3       12 UNK        -0.0855 
      7 S7         29.6788   -4.3537   -0.6332 S.3       12 UNK        -0.2931 
      8 C8         31.3626   -3.6749   -0.4906 C.3       12 UNK         0.0378 
      9 C9         31.5406   -2.3600   -1.2397 C.ar      12 UNK        -0.0802 
     10 C10        32.4066   -2.2936   -2.3348 C.ar      12 UNK        -0.0944 
     11 C11        32.6137   -1.0852   -3.0042 C.ar      12 UNK        -0.0787 
     12 C12        31.9498    0.0643   -2.5687 C.ar      12 UNK        -0.0862 
     13 C13        31.0543    0.0084   -1.4956 C.ar      12 UNK        -0.0733 
     14 C14        30.8630   -1.2070   -0.8281 C.ar      12 UNK        -0.0832 
     15 C15        30.2997    1.2563   -1.0442 C.3       12 UNK         0.0240 
     16 S16        29.5805    2.2201   -2.4207 S.3       12 UNK        -0.2522 
     17 C17        28.4003    1.0301   -3.1377 C.3       12 UNK        -0.0967 
     18 CA         28.2310    1.2068   -4.6694 C.3       5 UNK         0.0660 
     19 N          27.8075   -0.0385   -5.3135 N.am      5 UNK        -0.4015 
     20 C          27.6519   -0.2261   -6.6318 C.2       4 UNK         0.4946 
     21 O          27.9423    0.6068   -7.4905 O.2       4 UNK        -0.5353 
     22 CA         27.0148   -1.5561   -7.0651 C.3       4 UNK         0.0277 
     23 CB         28.0687   -2.6683   -7.1780 C.3       4 UNK        -0.1981 
     24 N          25.9399   -1.9718   -6.1600 N.am      4 UNK        -0.4209 
     25 C          24.7658   -1.3337   -6.0432 C.2       3 UNK         0.4942 
     26 O          24.4400   -0.3669   -6.7303 O.2       3 UNK        -0.5208 
     27 CA         23.8177   -1.8234   -4.9377 C.3       3 UNK         0.0250 
     28 CB         23.0223   -3.0537   -5.4015 C.3       3 UNK        -0.1990 
     29 N          24.5291   -2.1221   -3.6920 N.am      3 UNK        -0.4232 
     30 C          25.1103   -1.1871   -2.9247 C.2       2 UNK         0.4993 
     31 O          25.0683    0.0176   -3.1699 O.2       2 UNK        -0.5286 
     32 CA         25.9158   -1.6665   -1.7051 C.3       2 UNK         0.0209 
     33 CB         25.0137   -1.7508   -0.4642 C.3       2 UNK        -0.1931 
     34 N          26.5951   -2.9493   -1.9044 N.am      2 UNK        -0.4546 
     35 C          27.4945   -3.2023   -2.8653 C.2       1 UNK         0.5154 
     36 O          27.8486   -2.3749   -3.7084 O.2       1 UNK        -0.5181 
     37 C          27.2779    2.3728   -5.0105 C.2       5 UNK         0.5014 
     38 O          27.7350    3.4060   -5.5010 O.2       5 UNK        -0.5248 
     39 N          25.9690    2.1694   -4.7900 N.am      6 UNK        -0.4434 
     40 CA         24.9038    3.1322   -5.0891 C.3       6 UNK         0.0363 
     41 CB         23.5675    2.6066   -4.5417 C.3       6 UNK        -0.1936 
     42 C          24.7772    3.4664   -6.5853 C.2       6 UNK         0.5081 
     43 O          24.5298    4.6233   -6.9262 O.2       6 UNK        -0.5248 
     44 N          24.9716    2.4624   -7.4510 N.am      7 UNK        -0.4718 
     45 CA         24.9958    2.6128   -8.9093 C.3       7 UNK         0.0273 
     46 CB         24.8321    1.2272   -9.5559 C.3       7 UNK        -0.1935 
     47 C          26.2671    3.2990   -9.4460 C.2       7 UNK         0.5018 
     48 O          26.2801    3.6798  -10.6174 O.2       7 UNK        -0.5186 
     49 N          27.3067    3.4204   -8.6050 N.am      8 UNK        -0.4240 
     50 CA         28.6592    3.8964   -8.9178 C.3       8 UNK         0.0235 
     51 CB         28.6514    5.3930   -9.2962 C.3       8 UNK        -0.2000 
     52 C          29.3641    3.0039   -9.9591 C.2       8 UNK         0.4941 
     53 O          30.0304    3.5113  -10.8647 O.2       8 UNK        -0.5273 
     54 N          29.1880    1.6849   -9.8115 N.am      9 UNK        -0.4262 
     55 CA         29.8142    0.6485  -10.6300 C.3       9 UNK         0.0264 
     56 CB         28.8670   -0.5655  -10.6731 C.3       9 UNK        -0.1955 
     57 C          31.2084    0.2815  -10.0841 C.2       9 UNK         0.5031 
     58 O          31.6984    0.9162   -9.1470 O.2       9 UNK        -0.5390 
     59 N          31.8310   -0.7430  -10.6857 N.am      10 UNK        -0.4204 
     60 CA         33.1603   -1.2507  -10.3210 C.3       10 UNK         0.0237 
     61 CB         33.6079   -2.2940  -11.3583 C.3       10 UNK        -0.1985 
     62 C          33.2523   -1.8346   -8.8972 C.2       10 UNK         0.4970 
     63 O          34.3322   -1.7804   -8.3092 O.2       10 UNK        -0.4914 
     64 N          32.1320   -2.3778   -8.3945 N.am      11 UNK        -0.4285 
     65 CA         31.8898   -2.8972   -7.0321 C.3       11 UNK         0.1007 
     66 C          32.8728   -3.9723   -6.4724 C.2       11 UNK         0.5703 
     67 N          33.7235   -4.5840   -7.2862 N.am      11 UNK        -0.7361 
     68 O          32.8234   -4.3074   -5.2916 O.2       11 UNK        -0.4986 
     69 C69        31.4950   -1.7885   -6.0083 C.3       12 UNK        -0.0947 
     70 S70        32.7287   -0.4730   -5.7196 S.3       12 UNK        -0.2240 
     71 C71        33.5594   -1.0222   -4.1950 C.3       12 UNK         0.0194 
     72 H72        26.1954   -5.4869   -6.9479 H         1 UNK         0.0906 
     73 H73        27.8275   -6.0912   -6.6527 H         1 UNK         0.0906 
     74 H74        26.4272   -7.0766   -6.2195 H         1 UNK         0.0906 
     75 H75        28.7927   -5.4674   -4.7091 H         1 UNK         0.3140 
     76 H76        27.4836   -5.2605   -2.2377 H         1 UNK         0.1085 
     77 H77        30.1490   -3.9598   -2.9922 H         1 UNK         0.0836 
     78 H78        29.9755   -5.6536   -2.6161 H         1 UNK         0.0836 
     79 H79        32.0750   -4.4232   -0.8420 H         1 UNK         0.0731 
     80 H80        31.5876   -3.5138    0.5646 H         1 UNK         0.0731 
     81 H81        32.9237   -3.1840   -2.6670 H         1 UNK         0.1312 
     82 H82        32.1136    0.9998   -3.0858 H         1 UNK         0.1406 
     83 H83        30.1858   -1.2620    0.0137 H         1 UNK         0.1631 
     84 H84        30.9872    1.8971   -0.4909 H         1 UNK         0.0717 
     85 H85        29.4978    0.9930   -0.3525 H         1 UNK         0.0717 
     86 H86        28.7675    0.0250   -2.9273 H         1 UNK         0.0934 
     87 H87        27.4502    1.1148   -2.6087 H         1 UNK         0.0934 
     88 H88        29.2073    1.4430   -5.0989 H         1 UNK         0.0739 
     89 H89        27.6266   -0.8277   -4.6968 H         1 UNK         0.3093 
     90 H90        26.5804   -1.4028   -8.0553 H         1 UNK         0.0818 
     91 H91        27.6425   -3.5712   -7.6130 H         1 UNK         0.0819 
     92 H92        28.8903   -2.3626   -7.8242 H         1 UNK         0.0819 
     93 H93        28.4975   -2.9268   -6.2099 H         1 UNK         0.0819 
     94 H94        26.1445   -2.7220   -5.5149 H         1 UNK         0.3041 
     95 H95        23.1062   -1.0201   -4.7333 H         1 UNK         0.0784 
     96 H96        22.4490   -2.8277   -6.3017 H         1 UNK         0.0793 
     97 H97        23.6730   -3.8968   -5.6349 H         1 UNK         0.0793 
     98 H98        22.3132   -3.3781   -4.6398 H         1 UNK         0.0793 
     99 H99        24.6447   -3.0976   -3.4486 H         1 UNK         0.3024 
    100 H100       26.6877   -0.9191   -1.5128 H         1 UNK         0.1171 
    101 H101       24.5131   -0.7987   -0.2809 H         1 UNK         0.0786 
    102 H102       25.5896   -1.9883    0.4305 H         1 UNK         0.0786 
    103 H103       24.2387   -2.5099   -0.5777 H         1 UNK         0.0786 
    104 H104       26.3620   -3.6861   -1.2540 H         1 UNK         0.2977 
    105 H105       25.6747    1.3023   -4.3423 H         1 UNK         0.3127 
    106 H106       25.1453    4.0596   -4.5656 H         1 UNK         0.0770 
    107 H107       23.2916    1.6559   -4.9998 H         1 UNK         0.0814 
    108 H108       22.7589    3.3121   -4.7377 H         1 UNK         0.0814 
    109 H109       23.6125    2.4564   -3.4629 H         1 UNK         0.0814 
    110 H110       25.0923    1.5206   -7.0895 H         1 UNK         0.2983 
    111 H111       24.1455    3.2315   -9.2043 H         1 UNK         0.0947 
    112 H112       24.8061    1.3011  -10.6439 H         1 UNK         0.0806 
    113 H113       23.9039    0.7493   -9.2423 H         1 UNK         0.0806 
    114 H114       25.6567    0.5635   -9.2939 H         1 UNK         0.0806 
    115 H115       27.1884    3.0592   -7.6654 H         1 UNK         0.3000 
    116 H116       29.2336    3.7931   -7.9957 H         1 UNK         0.0850 
    117 H117       29.6683    5.7740   -9.3971 H         1 UNK         0.0810 
    118 H118       28.1557    5.9915   -8.5319 H         1 UNK         0.0810 
    119 H119       28.1435    5.5705  -10.2445 H         1 UNK         0.0810 
    120 H120       28.6797    1.3571   -8.9905 H         1 UNK         0.3040 
    121 H121       29.9427    1.0233  -11.6476 H         1 UNK         0.0766 
    122 H122       27.8735   -0.2755  -11.0162 H         1 UNK         0.0812 
    123 H123       28.7545   -1.0200   -9.6904 H         1 UNK         0.0812 
    124 H124       29.2240   -1.3365  -11.3561 H         1 UNK         0.0812 
    125 H125       31.3733   -1.1978  -11.4627 H         1 UNK         0.3205 
    126 H126       33.8539   -0.4083  -10.3662 H         1 UNK         0.0754 
    127 H127       34.6064   -2.6695  -11.1288 H         1 UNK         0.0769 
    128 H128       33.6497   -1.8659  -12.3602 H         1 UNK         0.0769 
    129 H129       32.9356   -3.1525  -11.3865 H         1 UNK         0.0769 
    130 H130       31.3283   -2.3970   -9.0027 H         1 UNK         0.2981 
    131 H131       30.9830   -3.4879   -7.1620 H         1 UNK         0.0541 
    132 H132       34.3374   -5.2916   -6.9154 H         1 UNK         0.3459 
    133 H133       33.7938   -4.3064   -8.2515 H         1 UNK         0.3459 
    134 H134       30.6021   -1.2804   -6.3728 H         1 UNK         0.0612 
    135 H135       31.1915   -2.2288   -5.0575 H         1 UNK         0.0612 
    136 H136       34.0311   -1.9888   -4.3758 H         1 UNK         0.0624 
    137 H137       34.3668   -0.3253   -3.9675 H         1 UNK         0.0624 
@<TRIPOS>BOND
     1    1    2 1    
     2    1   72 1    
     3    1   73 1    
     4    1   74 1    
     5    2    3 2    
     6    2    4 am   BACKBONE|DICT|INTERRES
     7    4    5 1    
     8    4   75 1    
     9    5    6 1    
    10    5   35 1    
    11    5   76 1    
    12    6    7 1    
    13    6   77 1    
    14    6   78 1    
    15    7    8 1    
    16    8    9 1    
    17    8   79 1    
    18    8   80 1    
    19    9   10 ar   
    20    9   14 ar   
    21   10   11 ar   
    22   10   81 1    
    23   11   12 ar   
    24   11   71 1    
    25   12   13 ar   
    26   12   82 1    
    27   13   14 ar   
    28   13   15 1    
    29   14   83 1    
    30   15   16 1    
    31   15   84 1    
    32   15   85 1    
    33   16   17 1    
    34   17   18 1    
    35   17   86 1    
    36   17   87 1    
    37   18   19 1    
    38   18   37 1    
    39   18   88 1    
    40   19   20 am   BACKBONE|DICT|INTERRES
    41   19   89 1    
    42   20   21 2    
    43   20   22 1    
    44   22   23 1    
    45   22   24 1    
    46   22   90 1    
    47   23   91 1    
    48   23   92 1    
    49   23   93 1    
    50   24   25 am   BACKBONE|DICT|INTERRES
    51   24   94 1    
    52   25   26 2    
    53   25   27 1    
    54   27   28 1    
    55   27   29 1    
    56   27   95 1    
    57   28   96 1    
    58   28   97 1    
    59   28   98 1    
    60   29   30 am   BACKBONE|DICT|INTERRES
    61   29   99 1    
    62   30   31 2    
    63   30   32 1    
    64   32   33 1    
    65   32   34 1    
    66   32  100 1    
    67   33  101 1    
    68   33  102 1    
    69   33  103 1    
    70   34   35 am   BACKBONE|DICT|INTERRES
    71   34  104 1    
    72   35   36 2    
    73   37   38 2    
    74   37   39 am   BACKBONE|DICT|INTERRES
    75   39   40 1    
    76   39  105 1    
    77   40   41 1    
    78   40   42 1    
    79   40  106 1    
    80   41  107 1    
    81   41  108 1    
    82   41  109 1    
    83   42   43 2    
    84   42   44 am   BACKBONE|DICT|INTERRES
    85   44   45 1    
    86   44  110 1    
    87   45   46 1    
    88   45   47 1    
    89   45  111 1    
    90   46  112 1    
    91   46  113 1    
    92   46  114 1    
    93   47   48 2    
    94   47   49 am   BACKBONE|DICT|INTERRES
    95   49   50 1    
    96   49  115 1    
    97   50   51 1    
    98   50   52 1    
    99   50  116 1    
   100   51  117 1    
   101   51  118 1    
   102   51  119 1    
   103   52   53 2    
   104   52   54 am   BACKBONE|DICT|INTERRES
   105   54   55 1    
   106   54  120 1    
   107   55   56 1    
   108   55   57 1    
   109   55  121 1    
   110   56  122 1    
   111   56  123 1    
   112   56  124 1    
   113   57   58 2    
   114   57   59 am   BACKBONE|DICT|INTERRES
   115   59   60 1    
   116   59  125 1    
   117   60   61 1    
   118   60   62 1    
   119   60  126 1    
   120   61  127 1    
   121   61  128 1    
   122   61  129 1    
   123   62   63 2    
   124   62   64 am   BACKBONE|DICT|INTERRES
   125   64   65 1    
   126   64  130 1    
   127   65   66 1    
   128   65   69 1    
   129   65  131 1    
   130   66   67 am   BACKBONE|DICT|INTERRES
   131   66   68 2    
   132   67  132 1    
   133   67  133 1    
   134   69   70 1    
   135   69  134 1    
   136   69  135 1    
   137   70   71 1    
   138   71  136 1    
   139   71  137 1    
@<TRIPOS>SUBSTRUCTURE
     1 UNK         1 GROUP             0       ****    0 ROOT    
