@<TRIPOS>MOLECULE
3R137
137   139    1
SMALL
USER_CHARGES


@<TRIPOS>ATOM
      1 CA         30.5827   -0.1037   -0.7619 C.3       0 UNK        -0.2020 
      2 C          29.4714   -1.1376   -0.6651 C.2       0 UNK         0.4855 
      3 O          28.7002   -1.1169    0.2945 O.2       0 UNK        -0.5197 
      4 N          29.3748   -2.0253   -1.6631 N.am      1 UNK        -0.4892 
      5 CA         28.4400   -3.1569   -1.8056 C.3       1 UNK         0.0835 
      6 C6         28.5297   -4.2283   -0.6799 C.3       12 UNK        -0.0855 
      7 S7         30.2229   -4.7385   -0.2107 S.3       12 UNK        -0.2931 
      8 C8         30.6481   -5.9779   -1.4789 C.3       12 UNK         0.0378 
      9 C9         30.9804   -5.3170   -2.8081 C.ar      12 UNK        -0.0802 
     10 C10        32.1033   -4.4907   -2.9163 C.ar      12 UNK        -0.0944 
     11 C11        32.3755   -3.8190   -4.1102 C.ar      12 UNK        -0.0787 
     12 C12        31.5196   -3.9793   -5.2035 C.ar      12 UNK        -0.0862 
     13 C13        30.3985   -4.8081   -5.1087 C.ar      12 UNK        -0.0733 
     14 C14        30.1484   -5.4962   -3.9172 C.ar      12 UNK        -0.0832 
     15 C15        29.4365   -4.9372   -6.2797 C.3       12 UNK         0.0240 
     16 S16        27.8178   -4.1984   -5.8918 S.3       12 UNK        -0.2522 
     17 C17        28.1958   -2.4110   -5.8225 C.3       12 UNK        -0.0967 
     18 CA         27.2766   -1.6137   -6.7753 C.3       5 UNK         0.0660 
     19 N          25.8603   -1.7440   -6.4269 N.am      5 UNK        -0.4015 
     20 C          24.8635   -1.7086   -7.3206 C.2       4 UNK         0.4946 
     21 O          25.0299   -1.5783   -8.5336 O.2       4 UNK        -0.5353 
     22 CA         23.4323   -1.8231   -6.7689 C.3       4 UNK         0.0277 
     23 CB         23.0573   -3.2969   -6.5442 C.3       4 UNK        -0.1981 
     24 N          23.2223   -1.0701   -5.5299 N.am      4 UNK        -0.4209 
     25 C          23.3494    0.2595   -5.4163 C.2       3 UNK         0.4942 
     26 O          23.6644    1.0016   -6.3446 O.2       3 UNK        -0.5208 
     27 CA         23.1193    0.8664   -4.0237 C.3       3 UNK         0.0250 
     28 CB         21.6259    1.1620   -3.8113 C.3       3 UNK        -0.1990 
     29 N          23.6200    0.0566   -2.9080 N.am      3 UNK        -0.4232 
     30 C          24.8668   -0.4169   -2.7638 C.2       2 UNK         0.4993 
     31 O          25.7507   -0.2948   -3.6187 O.2       2 UNK        -0.5286 
     32 CA         25.1597   -1.1083   -1.4168 C.3       2 UNK         0.0209 
     33 CB         24.0721   -2.1356   -1.0260 C.3       2 UNK        -0.1931 
     34 N          26.4940   -1.7146   -1.3517 N.am      2 UNK        -0.4546 
     35 C          26.9689   -2.7521   -2.0519 C.2       1 UNK         0.5154 
     36 O          26.2997   -3.3924   -2.8635 O.2       1 UNK        -0.5181 
     37 C          27.6840   -0.1317   -6.8531 C.2       5 UNK         0.5014 
     38 O          28.4813    0.2189   -7.7255 O.2       5 UNK        -0.5248 
     39 N          27.1184    0.7179   -5.9796 N.am      6 UNK        -0.4434 
     40 CA         27.3401    2.1687   -5.9603 C.3       6 UNK         0.0363 
     41 CB         26.6827    2.7797   -4.7148 C.3       6 UNK        -0.1936 
     42 C          26.8543    2.8825   -7.2342 C.2       6 UNK         0.5081 
     43 O          27.5119    3.8171   -7.6893 O.2       6 UNK        -0.5248 
     44 N          25.7323    2.4217   -7.8033 N.am      7 UNK        -0.4718 
     45 CA         25.1969    2.8984   -9.0828 C.3       7 UNK         0.0273 
     46 CB         23.7103    2.5169   -9.1758 C.3       7 UNK        -0.1935 
     47 C          25.9623    2.3611  -10.3078 C.2       7 UNK         0.5018 
     48 O          25.7616    2.8801  -11.4072 O.2       7 UNK        -0.5186 
     49 N          26.7944    1.3308  -10.1100 N.am      8 UNK        -0.4240 
     50 CA         27.6093    0.6875  -11.1348 C.3       8 UNK         0.0235 
     51 CB         27.4419   -0.8422  -11.0165 C.3       8 UNK        -0.2000 
     52 C          29.0609    1.1793  -11.0041 C.2       8 UNK         0.4941 
     53 O          29.3165    2.3647  -11.2206 O.2       8 UNK        -0.5273 
     54 N          29.9901    0.2689  -10.6834 N.am      9 UNK        -0.4262 
     55 CA         31.4293    0.5277  -10.6021 C.3       9 UNK         0.0264 
     56 CB         32.1778   -0.8160  -10.6072 C.3       9 UNK        -0.1955 
     57 C          31.8615    1.3660   -9.3867 C.2       9 UNK         0.5031 
     58 O          32.9480    1.9467   -9.4307 O.2       9 UNK        -0.5390 
     59 N          31.0546    1.3742   -8.3121 N.am      10 UNK        -0.4204 
     60 CA         31.2939    2.0642   -7.0339 C.3       10 UNK         0.0237 
     61 CB         31.1371    3.5886   -7.2118 C.3       10 UNK        -0.1985 
     62 C          32.6223    1.6846   -6.3460 C.2       10 UNK         0.4970 
     63 O          33.1918    2.5011   -5.6197 O.2       10 UNK        -0.4914 
     64 N          33.0905    0.4562   -6.6043 N.am      11 UNK        -0.4285 
     65 CA         34.3832   -0.0985   -6.1717 C.3       11 UNK         0.1007 
     66 C          35.6285    0.6013   -6.7993 C.2       11 UNK         0.5703 
     67 N          35.4888    1.3649   -7.8783 N.am      11 UNK        -0.7361 
     68 O          36.7484    0.4233   -6.3253 O.2       11 UNK        -0.4986 
     69 C69        34.4955   -0.2791   -4.6280 C.3       12 UNK        -0.0947 
     70 S70        33.0753   -1.1740   -3.9140 S.3       12 UNK        -0.2240 
     71 C71        33.5747   -2.8943   -4.2153 C.3       12 UNK         0.0194 
     72 H72        31.1525   -0.2007   -1.6857 H         1 UNK         0.0906 
     73 H73        30.1648    0.9020   -0.7266 H         1 UNK         0.0906 
     74 H74        31.2721   -0.2165    0.0744 H         1 UNK         0.0906 
     75 H75        30.0491   -1.9619   -2.4134 H         1 UNK         0.3140 
     76 H76        28.7434   -3.6350   -2.7338 H         1 UNK         0.1085 
     77 H77        28.0526   -3.8522    0.2272 H         1 UNK         0.0836 
     78 H78        27.9652   -5.1191   -0.9625 H         1 UNK         0.0836 
     79 H79        31.5153   -6.5462   -1.1398 H         1 UNK         0.0731 
     80 H80        29.8318   -6.6945   -1.5822 H         1 UNK         0.0731 
     81 H81        32.7469   -4.3472   -2.0589 H         1 UNK         0.1312 
     82 H82        31.7186   -3.4417   -6.1205 H         1 UNK         0.1406 
     83 H83        29.2729   -6.1273   -3.8409 H         1 UNK         0.1631 
     84 H84        29.2963   -5.9937   -6.5127 H         1 UNK         0.0717 
     85 H85        29.8414   -4.4739   -7.1808 H         1 UNK         0.0717 
     86 H86        28.0805   -2.0662   -4.7939 H         1 UNK         0.0934 
     87 H87        29.2438   -2.2518   -6.0829 H         1 UNK         0.0934 
     88 H88        27.4250   -2.0272   -7.7751 H         1 UNK         0.0739 
     89 H89        25.6418   -1.8302   -5.4428 H         1 UNK         0.3093 
     90 H90        22.7582   -1.4095   -7.5222 H         1 UNK         0.0818 
     91 H91        22.0144   -3.4009   -6.2443 H         1 UNK         0.0819 
     92 H92        23.1881   -3.8757   -7.4598 H         1 UNK         0.0819 
     93 H93        23.6773   -3.7603   -5.7753 H         1 UNK         0.0819 
     94 H94        22.9699   -1.5982   -4.7074 H         1 UNK         0.3041 
     95 H95        23.6521    1.8170   -3.9907 H         1 UNK         0.0784 
     96 H96        21.2317    1.7800   -4.6196 H         1 UNK         0.0793 
     97 H97        21.0318    0.2477   -3.7810 H         1 UNK         0.0793 
     98 H98        21.4558    1.7049   -2.8813 H         1 UNK         0.0793 
     99 H99        22.9691   -0.0960   -2.1513 H         1 UNK         0.3024 
    100 H100       25.1607   -0.3176   -0.6647 H         1 UNK         0.1171 
    101 H101       23.1136   -1.6537   -0.8323 H         1 UNK         0.0786 
    102 H102       24.3436   -2.6697   -0.1152 H         1 UNK         0.0786 
    103 H103       23.9114   -2.8772   -1.8094 H         1 UNK         0.0786 
    104 H104       27.1514   -1.2797   -0.7076 H         1 UNK         0.2977 
    105 H105       26.5090    0.3447   -5.2546 H         1 UNK         0.3127 
    106 H106       28.4136    2.3373   -5.8814 H         1 UNK         0.0770 
    107 H107       25.5984    2.6902   -4.7527 H         1 UNK         0.0814 
    108 H108       26.9177    3.8417   -4.6330 H         1 UNK         0.0814 
    109 H109       27.0306    2.2978   -3.8008 H         1 UNK         0.0814 
    110 H110       25.1901    1.7074   -7.3228 H         1 UNK         0.2983 
    111 H111       25.2719    3.9878   -9.1067 H         1 UNK         0.0947 
    112 H112       23.2667    2.8839  -10.1023 H         1 UNK         0.0806 
    113 H113       23.1389    2.9450   -8.3520 H         1 UNK         0.0806 
    114 H114       23.5720    1.4349   -9.1521 H         1 UNK         0.0806 
    115 H115       26.9469    1.0169   -9.1604 H         1 UNK         0.3000 
    116 H116       27.2668    0.9802  -12.1296 H         1 UNK         0.0850 
    117 H117       28.0141   -1.3661  -11.7834 H         1 UNK         0.0810 
    118 H118       26.3982   -1.1279  -11.1511 H         1 UNK         0.0810 
    119 H119       27.7540   -1.2194  -10.0426 H         1 UNK         0.0810 
    120 H120       29.6876   -0.6783  -10.5084 H         1 UNK         0.3040 
    121 H121       31.7222    1.0836  -11.4955 H         1 UNK         0.0766 
    122 H122       33.2576   -0.6628  -10.5718 H         1 UNK         0.0812 
    123 H123       31.9651   -1.3853  -11.5124 H         1 UNK         0.0812 
    124 H124       31.9082   -1.4342   -9.7499 H         1 UNK         0.0812 
    125 H125       30.1746    0.8637   -8.3607 H         1 UNK         0.3205 
    126 H126       30.5130    1.7204   -6.3573 H         1 UNK         0.0754 
    127 H127       31.1446    4.1011   -6.2491 H         1 UNK         0.0769 
    128 H128       30.1956    3.8353   -7.7016 H         1 UNK         0.0769 
    129 H129       31.9446    4.0079   -7.8129 H         1 UNK         0.0769 
    130 H130       32.5487   -0.1339   -7.2162 H         1 UNK         0.2981 
    131 H131       34.4085   -1.0976   -6.6064 H         1 UNK         0.0541 
    132 H132       34.5782    1.5253   -8.2962 H         1 UNK         0.3459 
    133 H133       36.3045    1.7998   -8.2786 H         1 UNK         0.3459 
    134 H134       34.5657    0.6916   -4.1351 H         1 UNK         0.0612 
    135 H135       35.4081   -0.8173   -4.3660 H         1 UNK         0.0612 
    136 H136       34.0188   -2.9882   -5.2070 H         1 UNK         0.0624 
    137 H137       34.3483   -3.1776   -3.5000 H         1 UNK         0.0624 
@<TRIPOS>BOND
     1    1    2 1    
     2    1   72 1    
     3    1   73 1    
     4    1   74 1    
     5    2    3 2    
     6    2    4 am   BACKBONE|DICT|INTERRES
     7    4    5 1    
     8    4   75 1    
     9    5    6 1    
    10    5   35 1    
    11    5   76 1    
    12    6    7 1    
    13    6   77 1    
    14    6   78 1    
    15    7    8 1    
    16    8    9 1    
    17    8   79 1    
    18    8   80 1    
    19    9   10 ar   
    20    9   14 ar   
    21   10   11 ar   
    22   10   81 1    
    23   11   12 ar   
    24   11   71 1    
    25   12   13 ar   
    26   12   82 1    
    27   13   14 ar   
    28   13   15 1    
    29   14   83 1    
    30   15   16 1    
    31   15   84 1    
    32   15   85 1    
    33   16   17 1    
    34   17   18 1    
    35   17   86 1    
    36   17   87 1    
    37   18   19 1    
    38   18   37 1    
    39   18   88 1    
    40   19   20 am   BACKBONE|DICT|INTERRES
    41   19   89 1    
    42   20   21 2    
    43   20   22 1    
    44   22   23 1    
    45   22   24 1    
    46   22   90 1    
    47   23   91 1    
    48   23   92 1    
    49   23   93 1    
    50   24   25 am   BACKBONE|DICT|INTERRES
    51   24   94 1    
    52   25   26 2    
    53   25   27 1    
    54   27   28 1    
    55   27   29 1    
    56   27   95 1    
    57   28   96 1    
    58   28   97 1    
    59   28   98 1    
    60   29   30 am   BACKBONE|DICT|INTERRES
    61   29   99 1    
    62   30   31 2    
    63   30   32 1    
    64   32   33 1    
    65   32   34 1    
    66   32  100 1    
    67   33  101 1    
    68   33  102 1    
    69   33  103 1    
    70   34   35 am   BACKBONE|DICT|INTERRES
    71   34  104 1    
    72   35   36 2    
    73   37   38 2    
    74   37   39 am   BACKBONE|DICT|INTERRES
    75   39   40 1    
    76   39  105 1    
    77   40   41 1    
    78   40   42 1    
    79   40  106 1    
    80   41  107 1    
    81   41  108 1    
    82   41  109 1    
    83   42   43 2    
    84   42   44 am   BACKBONE|DICT|INTERRES
    85   44   45 1    
    86   44  110 1    
    87   45   46 1    
    88   45   47 1    
    89   45  111 1    
    90   46  112 1    
    91   46  113 1    
    92   46  114 1    
    93   47   48 2    
    94   47   49 am   BACKBONE|DICT|INTERRES
    95   49   50 1    
    96   49  115 1    
    97   50   51 1    
    98   50   52 1    
    99   50  116 1    
   100   51  117 1    
   101   51  118 1    
   102   51  119 1    
   103   52   53 2    
   104   52   54 am   BACKBONE|DICT|INTERRES
   105   54   55 1    
   106   54  120 1    
   107   55   56 1    
   108   55   57 1    
   109   55  121 1    
   110   56  122 1    
   111   56  123 1    
   112   56  124 1    
   113   57   58 2    
   114   57   59 am   BACKBONE|DICT|INTERRES
   115   59   60 1    
   116   59  125 1    
   117   60   61 1    
   118   60   62 1    
   119   60  126 1    
   120   61  127 1    
   121   61  128 1    
   122   61  129 1    
   123   62   63 2    
   124   62   64 am   BACKBONE|DICT|INTERRES
   125   64   65 1    
   126   64  130 1    
   127   65   66 1    
   128   65   69 1    
   129   65  131 1    
   130   66   67 am   BACKBONE|DICT|INTERRES
   131   66   68 2    
   132   67  132 1    
   133   67  133 1    
   134   69   70 1    
   135   69  134 1    
   136   69  135 1    
   137   70   71 1    
   138   71  136 1    
   139   71  137 1    
@<TRIPOS>SUBSTRUCTURE
     1 UNK         1 GROUP             0       ****    0 ROOT    
