@<TRIPOS>MOLECULE
3R137
137   139    1
SMALL
USER_CHARGES


@<TRIPOS>ATOM
      1 CA         24.1553   -5.5862   -5.4740 C.3       0 UNK        -0.2020 
      2 C          24.4783   -5.0522   -4.0872 C.2       0 UNK         0.4855 
      3 O          23.6202   -4.4362   -3.4542 O.2       0 UNK        -0.5197 
      4 N          25.7148   -5.2689   -3.6198 N.am      1 UNK        -0.4892 
      5 CA         26.2615   -4.7959   -2.3421 C.3       1 UNK         0.0835 
      6 C6         27.7072   -5.3146   -2.0941 C.3       12 UNK        -0.0855 
      7 S7         28.8154   -5.2601   -3.5538 S.3       12 UNK        -0.2931 
      8 C8         30.4430   -4.9375   -2.8060 C.3       12 UNK         0.0378 
      9 C9         30.8477   -3.4720   -2.9026 C.ar      12 UNK        -0.0802 
     10 C10        31.6422   -3.0327   -3.9685 C.ar      12 UNK        -0.0944 
     11 C11        32.0857   -1.7076   -4.0238 C.ar      12 UNK        -0.0787 
     12 C12        31.7235   -0.8193   -3.0093 C.ar      12 UNK        -0.0862 
     13 C13        30.9074   -1.2358   -1.9544 C.ar      12 UNK        -0.0733 
     14 C14        30.4733   -2.5655   -1.9051 C.ar      12 UNK        -0.0832 
     15 C15        30.5112   -0.2514   -0.8605 C.3       12 UNK         0.0240 
     16 S16        29.6814    1.2344   -1.5185 S.3       12 UNK        -0.2522 
     17 C17        28.2439    0.5002   -2.3627 C.3       12 UNK        -0.0967 
     18 CA         28.3138    0.6492   -3.9067 C.3       5 UNK         0.0660 
     19 N          27.6023   -0.4362   -4.5856 N.am      5 UNK        -0.4015 
     20 C          27.5006   -0.6184   -5.9101 C.2       4 UNK         0.4946 
     21 O          28.0685    0.0717   -6.7537 O.2       4 UNK        -0.5353 
     22 CA         26.5406   -1.7206   -6.3817 C.3       4 UNK         0.0277 
     23 CB         27.2155   -3.0999   -6.3462 C.3       4 UNK        -0.1981 
     24 N          25.3085   -1.7401   -5.5911 N.am      4 UNK        -0.4209 
     25 C          24.3822   -0.7701   -5.6141 C.2       3 UNK         0.4942 
     26 O          24.4327    0.2097   -6.3572 O.2       3 UNK        -0.5208 
     27 CA         23.2330   -0.8888   -4.6007 C.3       3 UNK         0.0250 
     28 CB         22.1153   -1.7936   -5.1422 C.3       3 UNK        -0.1990 
     29 N          23.6933   -1.3808   -3.2988 N.am      3 UNK        -0.4232 
     30 C          24.4574   -0.6600   -2.4632 C.2       2 UNK         0.4993 
     31 O          24.8117    0.4964   -2.6928 O.2       2 UNK        -0.5286 
     32 CA         24.9556   -1.3522   -1.1810 C.3       2 UNK         0.0209 
     33 CB         23.9357   -1.1779   -0.0451 C.3       2 UNK        -0.1931 
     34 N          25.2576   -2.7772   -1.3555 N.am      2 UNK        -0.4546 
     35 C          26.1586   -3.2626   -2.2213 C.2       1 UNK         0.5154 
     36 O          26.8452   -2.5480   -2.9492 O.2       1 UNK        -0.5181 
     37 C          27.8084    2.0350   -4.3559 C.2       5 UNK         0.5014 
     38 O          28.6141    2.8728   -4.7630 O.2       5 UNK        -0.5248 
     39 N          26.4820    2.2370   -4.3012 N.am      6 UNK        -0.4434 
     40 CA         25.8033    3.4683   -4.7148 C.3       6 UNK         0.0363 
     41 CB         24.3156    3.3865   -4.3376 C.3       6 UNK        -0.1936 
     42 C          25.9651    3.7821   -6.2118 C.2       6 UNK         0.5081 
     43 O          26.1739    4.9427   -6.5666 O.2       6 UNK        -0.5248 
     44 N          25.8816    2.7487   -7.0602 N.am      7 UNK        -0.4718 
     45 CA         26.0908    2.8498   -8.5076 C.3       7 UNK         0.0273 
     46 CB         25.4915    1.6039   -9.1803 C.3       7 UNK        -0.1935 
     47 C          27.5694    3.0062   -8.9114 C.2       7 UNK         0.5018 
     48 O          27.8350    3.4244  -10.0390 O.2       7 UNK        -0.5186 
     49 N          28.4896    2.6302   -8.0100 N.am      8 UNK        -0.4240 
     50 CA         29.9316    2.4466   -8.2149 C.3       8 UNK         0.0235 
     51 CB         30.6326    3.7895   -8.5084 C.3       8 UNK        -0.2000 
     52 C          30.2299    1.3594   -9.2685 C.2       8 UNK         0.4941 
     53 O          31.1626    1.5055  -10.0623 O.2       8 UNK        -0.5273 
     54 N          29.4140    0.2949   -9.2664 N.am      9 UNK        -0.4262 
     55 CA         29.4030   -0.7883  -10.2498 C.3       9 UNK         0.0264 
     56 CB         28.1572   -1.6620  -10.0259 C.3       9 UNK        -0.1955 
     57 C          30.6984   -1.6134  -10.1996 C.2       9 UNK         0.5031 
     58 O          30.8329   -2.4906   -9.3446 O.2       9 UNK        -0.5390 
     59 N          31.6314   -1.2788  -11.1031 N.am      10 UNK        -0.4204 
     60 CA         33.0027   -1.7944  -11.2068 C.3       10 UNK         0.0237 
     61 CB         33.0105   -3.3031  -11.5377 C.3       10 UNK        -0.1985 
     62 C          33.8869   -1.4432   -9.9908 C.2       10 UNK         0.4970 
     63 O          34.8869   -2.1238   -9.7547 O.2       10 UNK        -0.4914 
     64 N          33.5253   -0.3821   -9.2557 N.am      11 UNK        -0.4285 
     65 CA         34.2716    0.1143   -8.0886 C.3       11 UNK         0.1007 
     66 C          35.4816    1.0241   -8.4508 C.2       11 UNK         0.5703 
     67 N          35.6608    1.4343   -9.7014 N.am      11 UNK        -0.7361 
     68 O          36.2831    1.3538   -7.5797 O.2       11 UNK        -0.4986 
     69 C69        33.3414    0.8050   -7.0575 C.3       12 UNK        -0.0947 
     70 S70        32.0417   -0.2953   -6.4007 S.3       12 UNK        -0.2240 
     71 C71        32.9825   -1.2275   -5.1537 C.3       12 UNK         0.0194 
     72 H72        24.9794   -6.1653   -5.8902 H         1 UNK         0.0906 
     73 H73        23.2770   -6.2297   -5.4319 H         1 UNK         0.0906 
     74 H74        23.9421   -4.7623   -6.1544 H         1 UNK         0.0906 
     75 H75        26.3895   -5.7474   -4.2012 H         1 UNK         0.3140 
     76 H76        25.6322   -5.2243   -1.5590 H         1 UNK         0.1085 
     77 H77        28.1667   -4.7843   -1.2578 H         1 UNK         0.0836 
     78 H78        27.6572   -6.3577   -1.7777 H         1 UNK         0.0836 
     79 H79        31.1823   -5.5547   -3.3189 H         1 UNK         0.0731 
     80 H80        30.4559   -5.2680   -1.7664 H         1 UNK         0.0731 
     81 H81        31.9313   -3.7274   -4.7453 H         1 UNK         0.1312 
     82 H82        32.0676    0.2055   -3.0480 H         1 UNK         0.1406 
     83 H83        29.8540   -2.9005   -1.0846 H         1 UNK         0.1631 
     84 H84        31.4071    0.0557   -0.3194 H         1 UNK         0.0717 
     85 H85        29.8556   -0.7247   -0.1278 H         1 UNK         0.0717 
     86 H86        28.1976   -0.5529   -2.0873 H         1 UNK         0.0934 
     87 H87        27.3357    0.9418   -1.9494 H         1 UNK         0.0934 
     88 H88        29.3554    0.5584   -4.2229 H         1 UNK         0.0739 
     89 H89        27.1717   -1.1334   -3.9798 H         1 UNK         0.3093 
     90 H90        26.2712   -1.5019   -7.4171 H         1 UNK         0.0818 
     91 H91        27.4483   -3.4078   -5.3287 H         1 UNK         0.0819 
     92 H92        26.5818   -3.8654   -6.7933 H         1 UNK         0.0819 
     93 H93        28.1568   -3.0928   -6.8970 H         1 UNK         0.0819 
     94 H94        25.2216   -2.4707   -4.9002 H         1 UNK         0.3041 
     95 H95        22.8159    0.1104   -4.4563 H         1 UNK         0.0784 
     96 H96        21.7319   -1.4119   -6.0895 H         1 UNK         0.0793 
     97 H97        22.4628   -2.8114   -5.3191 H         1 UNK         0.0793 
     98 H98        21.2750   -1.8428   -4.4495 H         1 UNK         0.0793 
     99 H99        23.4844   -2.3470   -3.0686 H         1 UNK         0.3024 
    100 H100       25.8815   -0.8549   -0.8853 H         1 UNK         0.1171 
    101 H101       23.7096   -0.1229    0.1173 H         1 UNK         0.0786 
    102 H102       24.3178   -1.5733    0.8963 H         1 UNK         0.0786 
    103 H103       22.9943   -1.6829   -0.2653 H         1 UNK         0.0786 
    104 H104       24.6964   -3.4257   -0.8217 H         1 UNK         0.2977 
    105 H105       25.8924    1.5098   -3.9013 H         1 UNK         0.3127 
    106 H106       26.2513    4.2926   -4.1559 H         1 UNK         0.0770 
    107 H107       23.8180    2.5554   -4.8388 H         1 UNK         0.0814 
    108 H108       23.7900    4.3003   -4.6178 H         1 UNK         0.0814 
    109 H109       24.1858    3.2539   -3.2633 H         1 UNK         0.0814 
    110 H110       25.6391    1.8317   -6.6959 H         1 UNK         0.2983 
    111 H111       25.5573    3.7292   -8.8752 H         1 UNK         0.0947 
    112 H112       25.6124    1.6437  -10.2637 H         1 UNK         0.0806 
    113 H113       24.4242    1.5176   -8.9756 H         1 UNK         0.0806 
    114 H114       25.9726    0.6900   -8.8299 H         1 UNK         0.0806 
    115 H115       28.1414    2.2592   -7.1333 H         1 UNK         0.3000 
    116 H116       30.3193    2.0698   -7.2675 H         1 UNK         0.0850 
    117 H117       31.7160    3.6681   -8.5311 H         1 UNK         0.0810 
    118 H118       30.4054    4.5294   -7.7409 H         1 UNK         0.0810 
    119 H119       30.3338    4.2013   -9.4726 H         1 UNK         0.0810 
    120 H120       28.7662    0.2115   -8.4851 H         1 UNK         0.3040 
    121 H121       29.3143   -0.3369  -11.2403 H         1 UNK         0.0766 
    122 H122       27.2399   -1.0838  -10.1366 H         1 UNK         0.0812 
    123 H123       28.1549   -2.1093   -9.0329 H         1 UNK         0.0812 
    124 H124       28.1173   -2.4767  -10.7499 H         1 UNK         0.0812 
    125 H125       31.4194   -0.5016  -11.7158 H         1 UNK         0.3205 
    126 H126       33.4517   -1.2748  -12.0546 H         1 UNK         0.0754 
    127 H127       34.0178   -3.6470  -11.7761 H         1 UNK         0.0769 
    128 H128       32.3829   -3.5235  -12.4012 H         1 UNK         0.0769 
    129 H129       32.6536   -3.9041  -10.7006 H         1 UNK         0.0769 
    130 H130       32.7033    0.1477   -9.5215 H         1 UNK         0.2981 
    131 H131       34.7096   -0.7492   -7.5846 H         1 UNK         0.0541 
    132 H132       36.4527    2.0180   -9.9204 H         1 UNK         0.3459 
    133 H133       35.0091    1.1749  -10.4238 H         1 UNK         0.3459 
    134 H134       33.9129    1.1984   -6.2149 H         1 UNK         0.0612 
    135 H135       32.8558    1.6685   -7.5134 H         1 UNK         0.0612 
    136 H136       33.7737   -0.6034   -4.7364 H         1 UNK         0.0624 
    137 H137       33.4786   -2.0689   -5.6391 H         1 UNK         0.0624 
@<TRIPOS>BOND
     1    1    2 1    
     2    1   72 1    
     3    1   73 1    
     4    1   74 1    
     5    2    3 2    
     6    2    4 am   BACKBONE|DICT|INTERRES
     7    4    5 1    
     8    4   75 1    
     9    5    6 1    
    10    5   35 1    
    11    5   76 1    
    12    6    7 1    
    13    6   77 1    
    14    6   78 1    
    15    7    8 1    
    16    8    9 1    
    17    8   79 1    
    18    8   80 1    
    19    9   10 ar   
    20    9   14 ar   
    21   10   11 ar   
    22   10   81 1    
    23   11   12 ar   
    24   11   71 1    
    25   12   13 ar   
    26   12   82 1    
    27   13   14 ar   
    28   13   15 1    
    29   14   83 1    
    30   15   16 1    
    31   15   84 1    
    32   15   85 1    
    33   16   17 1    
    34   17   18 1    
    35   17   86 1    
    36   17   87 1    
    37   18   19 1    
    38   18   37 1    
    39   18   88 1    
    40   19   20 am   BACKBONE|DICT|INTERRES
    41   19   89 1    
    42   20   21 2    
    43   20   22 1    
    44   22   23 1    
    45   22   24 1    
    46   22   90 1    
    47   23   91 1    
    48   23   92 1    
    49   23   93 1    
    50   24   25 am   BACKBONE|DICT|INTERRES
    51   24   94 1    
    52   25   26 2    
    53   25   27 1    
    54   27   28 1    
    55   27   29 1    
    56   27   95 1    
    57   28   96 1    
    58   28   97 1    
    59   28   98 1    
    60   29   30 am   BACKBONE|DICT|INTERRES
    61   29   99 1    
    62   30   31 2    
    63   30   32 1    
    64   32   33 1    
    65   32   34 1    
    66   32  100 1    
    67   33  101 1    
    68   33  102 1    
    69   33  103 1    
    70   34   35 am   BACKBONE|DICT|INTERRES
    71   34  104 1    
    72   35   36 2    
    73   37   38 2    
    74   37   39 am   BACKBONE|DICT|INTERRES
    75   39   40 1    
    76   39  105 1    
    77   40   41 1    
    78   40   42 1    
    79   40  106 1    
    80   41  107 1    
    81   41  108 1    
    82   41  109 1    
    83   42   43 2    
    84   42   44 am   BACKBONE|DICT|INTERRES
    85   44   45 1    
    86   44  110 1    
    87   45   46 1    
    88   45   47 1    
    89   45  111 1    
    90   46  112 1    
    91   46  113 1    
    92   46  114 1    
    93   47   48 2    
    94   47   49 am   BACKBONE|DICT|INTERRES
    95   49   50 1    
    96   49  115 1    
    97   50   51 1    
    98   50   52 1    
    99   50  116 1    
   100   51  117 1    
   101   51  118 1    
   102   51  119 1    
   103   52   53 2    
   104   52   54 am   BACKBONE|DICT|INTERRES
   105   54   55 1    
   106   54  120 1    
   107   55   56 1    
   108   55   57 1    
   109   55  121 1    
   110   56  122 1    
   111   56  123 1    
   112   56  124 1    
   113   57   58 2    
   114   57   59 am   BACKBONE|DICT|INTERRES
   115   59   60 1    
   116   59  125 1    
   117   60   61 1    
   118   60   62 1    
   119   60  126 1    
   120   61  127 1    
   121   61  128 1    
   122   61  129 1    
   123   62   63 2    
   124   62   64 am   BACKBONE|DICT|INTERRES
   125   64   65 1    
   126   64  130 1    
   127   65   66 1    
   128   65   69 1    
   129   65  131 1    
   130   66   67 am   BACKBONE|DICT|INTERRES
   131   66   68 2    
   132   67  132 1    
   133   67  133 1    
   134   69   70 1    
   135   69  134 1    
   136   69  135 1    
   137   70   71 1    
   138   71  136 1    
   139   71  137 1    
@<TRIPOS>SUBSTRUCTURE
     1 UNK         1 GROUP             0       ****    0 ROOT    
