@<TRIPOS>MOLECULE
3R137
137   139    1
SMALL
USER_CHARGES


@<TRIPOS>ATOM
      1 CA         26.1330   -4.6603   -7.9575 C.3       0 UNK        -0.2020 
      2 C          26.1586   -4.8596   -6.4497 C.2       0 UNK         0.4855 
      3 O          25.1006   -4.9311   -5.8246 O.2       0 UNK        -0.5197 
      4 N          27.3628   -4.9316   -5.8663 N.am      1 UNK        -0.4892 
      5 CA         27.6500   -5.0820   -4.4331 C.3       1 UNK         0.0835 
      6 C6         29.1842   -5.1156   -4.2149 C.3       12 UNK        -0.0855 
      7 S7         29.6892   -5.4364   -2.4903 S.3       12 UNK        -0.2931 
      8 C8         31.2184   -4.4474   -2.3700 C.3       12 UNK         0.0378 
      9 C9         30.9725   -2.9498   -2.5179 C.ar      12 UNK        -0.0802 
     10 C10        31.4959   -2.2503   -3.6108 C.ar      12 UNK        -0.0944 
     11 C11        31.2913   -0.8725   -3.7383 C.ar      12 UNK        -0.0787 
     12 C12        30.5625   -0.1933   -2.7584 C.ar      12 UNK        -0.0862 
     13 C13        30.0147   -0.8829   -1.6721 C.ar      12 UNK        -0.0733 
     14 C14        30.2328   -2.2592   -1.5535 C.ar      12 UNK        -0.0832 
     15 C15        29.1850   -0.1560   -0.6225 C.3       12 UNK         0.0240 
     16 S16        27.4075   -0.4933   -0.8416 S.3       12 UNK        -0.2522 
     17 C17        26.7588    1.0816   -1.5006 C.3       12 UNK        -0.0967 
     18 CA         27.3299    1.4946   -2.8792 C.3       5 UNK         0.0660 
     19 N          27.2280    0.4322   -3.8858 N.am      5 UNK        -0.4015 
     20 C          27.7871    0.4951   -5.1022 C.2       4 UNK         0.4946 
     21 O          28.5608    1.3864   -5.4425 O.2       4 UNK        -0.5353 
     22 CA         27.3567   -0.5338   -6.1590 C.3       4 UNK         0.0277 
     23 CB         28.4893   -1.5225   -6.4659 C.3       4 UNK        -0.1981 
     24 N          26.1225   -1.2419   -5.8120 N.am      4 UNK        -0.4209 
     25 C          24.9059   -0.6750   -5.7939 C.2       3 UNK         0.4942 
     26 O          24.7102    0.5067   -6.0819 O.2       3 UNK        -0.5208 
     27 CA         23.7252   -1.5449   -5.3328 C.3       3 UNK         0.0250 
     28 CB         23.0512   -2.2242   -6.5344 C.3       3 UNK        -0.1990 
     29 N          24.1339   -2.5532   -4.3505 N.am      3 UNK        -0.4232 
     30 C          24.3884   -2.2712   -3.0630 C.2       2 UNK         0.4993 
     31 O          24.1986   -1.1627   -2.5629 O.2       2 UNK        -0.5286 
     32 CA         24.9917   -3.3913   -2.1930 C.3       2 UNK         0.0209 
     33 CB         23.8811   -4.1719   -1.4724 C.3       2 UNK        -0.1931 
     34 N          25.8450   -4.3283   -2.9334 N.am      2 UNK        -0.4546 
     35 C          26.9519   -3.9792   -3.6048 C.2       1 UNK         0.5154 
     36 O          27.3756   -2.8256   -3.6511 O.2       1 UNK        -0.5181 
     37 C          26.7059    2.8282   -3.3544 C.2       5 UNK         0.5014 
     38 O          27.1265    3.8826   -2.8756 O.2       5 UNK        -0.5248 
     39 N          25.7456    2.7679   -4.2905 N.am      6 UNK        -0.4434 
     40 CA         25.1814    3.9268   -4.9799 C.3       6 UNK         0.0363 
     41 CB         23.6481    3.8086   -5.0056 C.3       6 UNK        -0.1936 
     42 C          25.7377    4.0445   -6.4084 C.2       6 UNK         0.5081 
     43 O          26.1346    5.1377   -6.8116 O.2       6 UNK        -0.5248 
     44 N          25.7341    2.9334   -7.1599 N.am      7 UNK        -0.4718 
     45 CA         26.0324    2.9110   -8.5963 C.3       7 UNK         0.0273 
     46 CB         25.3666    1.6723   -9.2219 C.3       7 UNK        -0.1935 
     47 C          27.5281    2.9532   -8.9591 C.2       7 UNK         0.5018 
     48 O          27.8402    3.2480  -10.1126 O.2       7 UNK        -0.5186 
     49 N          28.4180    2.6135   -8.0129 N.am      8 UNK        -0.4240 
     50 CA         29.8813    2.4936   -8.1458 C.3       8 UNK         0.0235 
     51 CB         30.5223    3.8429   -8.5312 C.3       8 UNK        -0.2000 
     52 C          30.3656    1.3504   -9.0622 C.2       8 UNK         0.4941 
     53 O          31.5730    1.2260   -9.2665 O.2       8 UNK        -0.5273 
     54 N          29.4485    0.5170   -9.5755 N.am      9 UNK        -0.4262 
     55 CA         29.6813   -0.5086  -10.6018 C.3       9 UNK         0.0264 
     56 CB         28.3525   -1.2228  -10.9011 C.3       9 UNK        -0.1955 
     57 C          30.7799   -1.5393  -10.2808 C.2       9 UNK         0.5031 
     58 O          31.4825   -1.9762  -11.1929 O.2       9 UNK        -0.5390 
     59 N          30.9084   -1.9011   -8.9990 N.am      10 UNK        -0.4204 
     60 CA         31.9117   -2.8410   -8.4923 C.3       10 UNK         0.0237 
     61 CB         31.3001   -3.6324   -7.3218 C.3       10 UNK        -0.1985 
     62 C          33.2276   -2.1616   -8.0630 C.2       10 UNK         0.4970 
     63 O          34.1810   -2.8779   -7.7549 O.2       10 UNK        -0.4914 
     64 N          33.2613   -0.8229   -8.0234 N.am      11 UNK        -0.4285 
     65 CA         34.4066   -0.0184   -7.5689 C.3       11 UNK         0.1007 
     66 C          35.0770    0.7686   -8.7268 C.2       11 UNK         0.5703 
     67 N          34.3470    1.1929   -9.7505 N.am      11 UNK        -0.7361 
     68 O          36.2866    0.9840   -8.7025 O.2       11 UNK        -0.4986 
     69 C69        33.9999    0.9369   -6.4153 C.3       12 UNK        -0.0947 
     70 S70        33.6464    0.0452   -4.8632 S.3       12 UNK        -0.2240 
     71 C71        31.8382   -0.1207   -4.9433 C.3       12 UNK         0.0194 
     72 H72        25.8140   -3.6467   -8.1981 H         1 UNK         0.0906 
     73 H73        27.1119   -4.8243   -8.4075 H         1 UNK         0.0906 
     74 H74        25.4314   -5.3567   -8.4161 H         1 UNK         0.0906 
     75 H75        28.1807   -4.8681   -6.4541 H         1 UNK         0.3140 
     76 H76        27.2471   -6.0484   -4.1232 H         1 UNK         0.1085 
     77 H77        29.6263   -4.1802   -4.5592 H         1 UNK         0.0836 
     78 H78        29.6291   -5.8979   -4.8320 H         1 UNK         0.0836 
     79 H79        31.9282   -4.8003   -3.1200 H         1 UNK         0.0731 
     80 H80        31.6821   -4.6349   -1.4006 H         1 UNK         0.0731 
     81 H81        32.0719   -2.7743   -4.3608 H         1 UNK         0.1312 
     82 H82        30.4159    0.8724   -2.8538 H         1 UNK         0.1406 
     83 H83        29.8116   -2.7985   -0.7159 H         1 UNK         0.1631 
     84 H84        29.3765    0.9176   -0.6442 H         1 UNK         0.0717 
     85 H85        29.4847   -0.4953    0.3700 H         1 UNK         0.0717 
     86 H86        25.6726    0.9853   -1.5577 H         1 UNK         0.0934 
     87 H87        26.9509    1.8614   -0.7608 H         1 UNK         0.0934 
     88 H88        28.3895    1.7060   -2.7467 H         1 UNK         0.0739 
     89 H89        26.6753   -0.3778   -3.6384 H         1 UNK         0.3093 
     90 H90        27.1618    0.0245   -7.0751 H         1 UNK         0.0818 
     91 H91        29.3676   -0.9833   -6.8166 H         1 UNK         0.0819 
     92 H92        28.7965   -2.0804   -5.5827 H         1 UNK         0.0819 
     93 H93        28.2035   -2.2338   -7.2404 H         1 UNK         0.0819 
     94 H94        26.2316   -2.1756   -5.4393 H         1 UNK         0.3041 
     95 H95        22.9911   -0.8825   -4.8686 H         1 UNK         0.0784 
     96 H96        22.7046   -1.4827   -7.2557 H         1 UNK         0.0793 
     97 H97        23.7309   -2.8947   -7.0594 H         1 UNK         0.0793 
     98 H98        22.1823   -2.8049   -6.2244 H         1 UNK         0.0793 
     99 H99        24.3323   -3.4869   -4.7016 H         1 UNK         0.3024 
    100 H100       25.6170   -2.9073   -1.4394 H         1 UNK         0.1171 
    101 H101       24.2955   -4.9013   -0.7763 H         1 UNK         0.0786 
    102 H102       23.2452   -3.5000   -0.8939 H         1 UNK         0.0786 
    103 H103       23.2391   -4.7035   -2.1761 H         1 UNK         0.0786 
    104 H104       25.5263   -5.2853   -2.9862 H         1 UNK         0.2977 
    105 H105       25.4597    1.8605   -4.6396 H         1 UNK         0.3127 
    106 H106       25.4348    4.8472   -4.4493 H         1 UNK         0.0770 
    107 H107       23.3159    2.9035   -5.5157 H         1 UNK         0.0814 
    108 H108       23.2002    4.6581   -5.5230 H         1 UNK         0.0814 
    109 H109       23.2374    3.7918   -3.9960 H         1 UNK         0.0814 
    110 H110       25.3563    2.0742   -6.7649 H         1 UNK         0.2983 
    111 H111       25.5772    3.7946   -9.0499 H         1 UNK         0.0947 
    112 H112       25.5229    1.6453  -10.3013 H         1 UNK         0.0806 
    113 H113       24.2893    1.6767   -9.0543 H         1 UNK         0.0806 
    114 H114       25.7610    0.7427   -8.8128 H         1 UNK         0.0806 
    115 H115       28.0723    2.3801   -7.0866 H         1 UNK         0.3000 
    116 H116       30.2543    2.2417   -7.1528 H         1 UNK         0.0850 
    117 H117       31.6103    3.7901   -8.4714 H         1 UNK         0.0810 
    118 H118       30.2013    4.6398   -7.8605 H         1 UNK         0.0810 
    119 H119       30.2706    4.1382   -9.5500 H         1 UNK         0.0810 
    120 H120       28.4839    0.7156   -9.3595 H         1 UNK         0.3040 
    121 H121       29.9951    0.0171  -11.5060 H         1 UNK         0.0766 
    122 H122       27.5965   -0.5231  -11.2584 H         1 UNK         0.0812 
    123 H123       27.9547   -1.7262  -10.0189 H         1 UNK         0.0812 
    124 H124       28.4810   -1.9789  -11.6771 H         1 UNK         0.0812 
    125 H125       30.2865   -1.4832   -8.3256 H         1 UNK         0.3205 
    126 H126       32.1657   -3.5554   -9.2784 H         1 UNK         0.0754 
    127 H127       32.0040   -4.3716   -6.9367 H         1 UNK         0.0769 
    128 H128       30.4070   -4.1732   -7.6344 H         1 UNK         0.0769 
    129 H129       31.0269   -2.9827   -6.4918 H         1 UNK         0.0769 
    130 H130       32.4792   -0.2913   -8.3877 H         1 UNK         0.2981 
    131 H131       35.1846   -0.6778   -7.1795 H         1 UNK         0.0541 
    132 H132       33.3334    1.1135   -9.7274 H         1 UNK         0.3459 
    133 H133       34.7944    1.6933  -10.5012 H         1 UNK         0.3459 
    134 H134       34.8090    1.6357   -6.1941 H         1 UNK         0.0612 
    135 H135       33.1415    1.5489   -6.6989 H         1 UNK         0.0612 
    136 H136       31.5615   -0.6520   -5.8523 H         1 UNK         0.0624 
    137 H137       31.3885    0.8709   -5.0165 H         1 UNK         0.0624 
@<TRIPOS>BOND
     1    1    2 1    
     2    1   72 1    
     3    1   73 1    
     4    1   74 1    
     5    2    3 2    
     6    2    4 am   BACKBONE|DICT|INTERRES
     7    4    5 1    
     8    4   75 1    
     9    5    6 1    
    10    5   35 1    
    11    5   76 1    
    12    6    7 1    
    13    6   77 1    
    14    6   78 1    
    15    7    8 1    
    16    8    9 1    
    17    8   79 1    
    18    8   80 1    
    19    9   10 ar   
    20    9   14 ar   
    21   10   11 ar   
    22   10   81 1    
    23   11   12 ar   
    24   11   71 1    
    25   12   13 ar   
    26   12   82 1    
    27   13   14 ar   
    28   13   15 1    
    29   14   83 1    
    30   15   16 1    
    31   15   84 1    
    32   15   85 1    
    33   16   17 1    
    34   17   18 1    
    35   17   86 1    
    36   17   87 1    
    37   18   19 1    
    38   18   37 1    
    39   18   88 1    
    40   19   20 am   BACKBONE|DICT|INTERRES
    41   19   89 1    
    42   20   21 2    
    43   20   22 1    
    44   22   23 1    
    45   22   24 1    
    46   22   90 1    
    47   23   91 1    
    48   23   92 1    
    49   23   93 1    
    50   24   25 am   BACKBONE|DICT|INTERRES
    51   24   94 1    
    52   25   26 2    
    53   25   27 1    
    54   27   28 1    
    55   27   29 1    
    56   27   95 1    
    57   28   96 1    
    58   28   97 1    
    59   28   98 1    
    60   29   30 am   BACKBONE|DICT|INTERRES
    61   29   99 1    
    62   30   31 2    
    63   30   32 1    
    64   32   33 1    
    65   32   34 1    
    66   32  100 1    
    67   33  101 1    
    68   33  102 1    
    69   33  103 1    
    70   34   35 am   BACKBONE|DICT|INTERRES
    71   34  104 1    
    72   35   36 2    
    73   37   38 2    
    74   37   39 am   BACKBONE|DICT|INTERRES
    75   39   40 1    
    76   39  105 1    
    77   40   41 1    
    78   40   42 1    
    79   40  106 1    
    80   41  107 1    
    81   41  108 1    
    82   41  109 1    
    83   42   43 2    
    84   42   44 am   BACKBONE|DICT|INTERRES
    85   44   45 1    
    86   44  110 1    
    87   45   46 1    
    88   45   47 1    
    89   45  111 1    
    90   46  112 1    
    91   46  113 1    
    92   46  114 1    
    93   47   48 2    
    94   47   49 am   BACKBONE|DICT|INTERRES
    95   49   50 1    
    96   49  115 1    
    97   50   51 1    
    98   50   52 1    
    99   50  116 1    
   100   51  117 1    
   101   51  118 1    
   102   51  119 1    
   103   52   53 2    
   104   52   54 am   BACKBONE|DICT|INTERRES
   105   54   55 1    
   106   54  120 1    
   107   55   56 1    
   108   55   57 1    
   109   55  121 1    
   110   56  122 1    
   111   56  123 1    
   112   56  124 1    
   113   57   58 2    
   114   57   59 am   BACKBONE|DICT|INTERRES
   115   59   60 1    
   116   59  125 1    
   117   60   61 1    
   118   60   62 1    
   119   60  126 1    
   120   61  127 1    
   121   61  128 1    
   122   61  129 1    
   123   62   63 2    
   124   62   64 am   BACKBONE|DICT|INTERRES
   125   64   65 1    
   126   64  130 1    
   127   65   66 1    
   128   65   69 1    
   129   65  131 1    
   130   66   67 am   BACKBONE|DICT|INTERRES
   131   66   68 2    
   132   67  132 1    
   133   67  133 1    
   134   69   70 1    
   135   69  134 1    
   136   69  135 1    
   137   70   71 1    
   138   71  136 1    
   139   71  137 1    
@<TRIPOS>SUBSTRUCTURE
     1 UNK         1 GROUP             0       ****    0 ROOT    
