@<TRIPOS>MOLECULE
3R137
137   139    1
SMALL
USER_CHARGES


@<TRIPOS>ATOM
      1 CA         28.3647   -3.7402    2.9361 C.3       0 UNK        -0.2020 
      2 C          28.4252   -2.5804    1.9532 C.2       0 UNK         0.4855 
      3 O          28.2130   -1.4327    2.3469 O.2       0 UNK        -0.5197 
      4 N          28.7228   -2.8693    0.6807 N.am      1 UNK        -0.4892 
      5 CA         28.7755   -1.8892   -0.4109 C.3       1 UNK         0.0835 
      6 C6         29.5256   -2.4447   -1.6468 C.3       12 UNK        -0.0855 
      7 S7         31.2643   -2.8381   -1.2482 S.3       12 UNK        -0.2931 
      8 C8         31.4971   -4.4577   -2.0461 C.3       12 UNK         0.0378 
      9 C9         31.5390   -4.3394   -3.5630 C.ar      12 UNK        -0.0802 
     10 C10        32.7101   -3.9253   -4.2068 C.ar      12 UNK        -0.0944 
     11 C11        32.7555   -3.8243   -5.6007 C.ar      12 UNK        -0.0787 
     12 C12        31.6144   -4.1306   -6.3489 C.ar      12 UNK        -0.0862 
     13 C13        30.4352   -4.5401   -5.7185 C.ar      12 UNK        -0.0733 
     14 C14        30.4109   -4.6570   -4.3246 C.ar      12 UNK        -0.0832 
     15 C15        29.1958   -4.8525   -6.5539 C.3       12 UNK         0.0240 
     16 S16        27.6677   -4.0908   -5.9053 S.3       12 UNK        -0.2522 
     17 C17        28.1153   -2.3233   -5.8815 C.3       12 UNK        -0.0967 
     18 CA         27.4131   -1.5127   -6.9934 C.3       5 UNK         0.0660 
     19 N          25.9493   -1.5719   -6.9109 N.am      5 UNK        -0.4015 
     20 C          25.0904   -0.9867   -7.7617 C.2       4 UNK         0.4946 
     21 O          25.4393   -0.2862   -8.7116 O.2       4 UNK        -0.5353 
     22 CA         23.5875   -1.2021   -7.5169 C.3       4 UNK         0.0277 
     23 CB         23.0644   -2.3510   -8.3933 C.3       4 UNK        -0.1981 
     24 N          23.2821   -1.4794   -6.1129 N.am      4 UNK        -0.4209 
     25 C          23.3113   -0.5593   -5.1397 C.2       3 UNK         0.4942 
     26 O          23.4540    0.6478   -5.3479 O.2       3 UNK        -0.5208 
     27 CA         23.1658   -1.0714   -3.6911 C.3       3 UNK         0.0250 
     28 CB         23.4106   -2.5914   -3.5383 C.3       3 UNK        -0.1990 
     29 N          24.0151   -0.3439   -2.7398 N.am      3 UNK        -0.4232 
     30 C          25.3412   -0.1464   -2.8114 C.2       2 UNK         0.4993 
     31 O          26.0427   -0.4784   -3.7711 O.2       2 UNK        -0.5286 
     32 CA         26.0127    0.5469   -1.6069 C.3       2 UNK         0.0209 
     33 CB         25.0835    0.7584   -0.3877 C.3       2 UNK        -0.1931 
     34 N          27.2447   -0.1419   -1.1969 N.am      2 UNK        -0.4546 
     35 C          27.3565   -1.4169   -0.7908 C.2       1 UNK         0.5154 
     36 O          26.4109   -2.2073   -0.7145 O.2       1 UNK        -0.5181 
     37 C          27.9359   -0.0683   -6.9998 C.2       5 UNK         0.5014 
     38 O          28.7334    0.2740   -7.8712 O.2       5 UNK        -0.5248 
     39 N          27.4225    0.7686   -6.0883 N.am      6 UNK        -0.4434 
     40 CA         27.7537    2.1932   -5.9850 C.3       6 UNK         0.0363 
     41 CB         27.0638    2.7808   -4.7454 C.3       6 UNK        -0.1936 
     42 C          27.4268    3.0328   -7.2376 C.2       6 UNK         0.5081 
     43 O          28.0061    4.1076   -7.3943 O.2       6 UNK        -0.5248 
     44 N          26.5298    2.5434   -8.1042 N.am      7 UNK        -0.4718 
     45 CA         26.2121    3.1545   -9.3938 C.3       7 UNK         0.0273 
     46 CB         24.6956    3.0724   -9.6387 C.3       7 UNK        -0.1935 
     47 C          26.9863    2.4784  -10.5361 C.2       7 UNK         0.5018 
     48 O          27.5815    3.1772  -11.3567 O.2       7 UNK        -0.5186 
     49 N          26.9411    1.1400  -10.5887 N.am      8 UNK        -0.4240 
     50 CA         27.4633    0.3354  -11.6948 C.3       8 UNK         0.0235 
     51 CB         26.7898   -1.0471  -11.6731 C.3       8 UNK        -0.2000 
     52 C          28.9918    0.1813  -11.6928 C.2       8 UNK         0.4941 
     53 O          29.5991    0.2394  -12.7631 O.2       8 UNK        -0.5273 
     54 N          29.5777   -0.0468  -10.5117 N.am      9 UNK        -0.4262 
     55 CA         31.0003   -0.3479  -10.3237 C.3       9 UNK         0.0264 
     56 CB         31.1194   -1.6864   -9.5741 C.3       9 UNK        -0.1955 
     57 C          31.7422    0.7578   -9.5551 C.2       9 UNK         0.5031 
     58 O          32.9704    0.8046   -9.6200 O.2       9 UNK        -0.5390 
     59 N          31.0029    1.5987   -8.8180 N.am      10 UNK        -0.4204 
     60 CA         31.4307    2.6887   -7.9299 C.3       10 UNK         0.0237 
     61 CB         32.3504    3.7027   -8.6386 C.3       10 UNK        -0.1985 
     62 C          32.0314    2.2060   -6.5981 C.2       10 UNK         0.4970 
     63 O          31.7976    2.8502   -5.5748 O.2       10 UNK        -0.4914 
     64 N          32.7709    1.0920   -6.6191 N.am      11 UNK        -0.4285 
     65 CA         33.2746    0.3849   -5.4349 C.3       11 UNK         0.1007 
     66 C          32.1582   -0.2399   -4.5517 C.2       11 UNK         0.5703 
     67 N          32.4801   -0.5416   -3.3015 N.am      11 UNK        -0.7361 
     68 O          31.0283   -0.4646   -4.9805 O.2       11 UNK        -0.4986 
     69 C69        34.3821   -0.6403   -5.8034 C.3       12 UNK        -0.0947 
     70 S70        33.9273   -1.8097   -7.1311 S.3       12 UNK        -0.2240 
     71 C71        34.0447   -3.4305   -6.3090 C.3       12 UNK         0.0194 
     72 H72        28.5902   -4.6932    2.4577 H         1 UNK         0.0906 
     73 H73        29.0826   -3.5875    3.7416 H         1 UNK         0.0906 
     74 H74        27.3695   -3.8082    3.3747 H         1 UNK         0.0906 
     75 H75        28.8753   -3.8297    0.4098 H         1 UNK         0.3140 
     76 H76        29.3261   -1.0198   -0.0433 H         1 UNK         0.1085 
     77 H77        29.0186   -3.3318   -2.0301 H         1 UNK         0.0836 
     78 H78        29.5253   -1.7197   -2.4639 H         1 UNK         0.0836 
     79 H79        32.4338   -4.8910   -1.6922 H         1 UNK         0.0731 
     80 H80        30.7086   -5.1416   -1.7283 H         1 UNK         0.0731 
     81 H81        33.5860   -3.6852   -3.6197 H         1 UNK         0.1312 
     82 H82        31.6499   -4.0482   -7.4267 H         1 UNK         0.1406 
     83 H83        29.5047   -4.9824   -3.8325 H         1 UNK         0.1631 
     84 H84        29.0612   -5.9341   -6.5921 H         1 UNK         0.0717 
     85 H85        29.3324   -4.5204   -7.5844 H         1 UNK         0.0717 
     86 H86        29.1978   -2.2181   -5.9720 H         1 UNK         0.0934 
     87 H87        27.8695   -1.9294   -4.8943 H         1 UNK         0.0934 
     88 H88        27.6896   -1.9530   -7.9538 H         1 UNK         0.0739 
     89 H89        25.5782   -2.1052   -6.1393 H         1 UNK         0.3093 
     90 H90        23.0719   -0.2852   -7.8115 H         1 UNK         0.0818 
     91 H91        21.9868   -2.4747   -8.2844 H         1 UNK         0.0819 
     92 H92        23.2611   -2.1550   -9.4486 H         1 UNK         0.0819 
     93 H93        23.5398   -3.3009   -8.1451 H         1 UNK         0.0819 
     94 H94        23.1271   -2.4447   -5.8593 H         1 UNK         0.3041 
     95 H95        22.1341   -0.8675   -3.4010 H         1 UNK         0.0784 
     96 H96        22.6800   -3.1781   -4.0963 H         1 UNK         0.0793 
     97 H97        24.4075   -2.8793   -3.8760 H         1 UNK         0.0793 
     98 H98        23.3226   -2.8965   -2.4952 H         1 UNK         0.0793 
     99 H99        23.5393    0.0109   -1.9228 H         1 UNK         0.3024 
    100 H100       26.3108    1.5346   -1.9587 H         1 UNK         0.1171 
    101 H101       25.6174    1.2456    0.4286 H         1 UNK         0.0786 
    102 H102       24.6885   -0.1827   -0.0025 H         1 UNK         0.0786 
    103 H103       24.2383    1.4016   -0.6360 H         1 UNK         0.0786 
    104 H104       28.0876    0.4113   -1.2642 H         1 UNK         0.2977 
    105 H105       26.7882    0.3890   -5.3890 H         1 UNK         0.3127 
    106 H106       28.8332    2.2616   -5.8344 H         1 UNK         0.0770 
    107 H107       25.9829    2.6363   -4.7784 H         1 UNK         0.0814 
    108 H108       27.2508    3.8522   -4.6595 H         1 UNK         0.0814 
    109 H109       27.4437    2.3165   -3.8367 H         1 UNK         0.0814 
    110 H110       26.1266    1.6323   -7.9232 H         1 UNK         0.2983 
    111 H111       26.4881    4.2115   -9.3879 H         1 UNK         0.0947 
    112 H112       24.4309    3.5214  -10.5969 H         1 UNK         0.0806 
    113 H113       24.1426    3.6080   -8.8668 H         1 UNK         0.0806 
    114 H114       24.3367    2.0426   -9.6509 H         1 UNK         0.0806 
    115 H115       26.4140    0.6385   -9.8739 H         1 UNK         0.3000 
    116 H116       27.1853    0.8270  -12.6299 H         1 UNK         0.0850 
    117 H117       27.1346   -1.6644  -12.5038 H         1 UNK         0.0810 
    118 H118       25.7065   -0.9610  -11.7605 H         1 UNK         0.0810 
    119 H119       27.0066   -1.5879  -10.7508 H         1 UNK         0.0810 
    120 H120       29.0099   -0.0357   -9.6675 H         1 UNK         0.3040 
    121 H121       31.4972   -0.4564  -11.2898 H         1 UNK         0.0766 
    122 H122       32.1610   -2.0014   -9.5102 H         1 UNK         0.0812 
    123 H123       30.7340   -1.6184   -8.5553 H         1 UNK         0.0812 
    124 H124       30.5756   -2.4799  -10.0868 H         1 UNK         0.0812 
    125 H125       30.0233    1.3463   -8.7156 H         1 UNK         0.3205 
    126 H126       30.5136    3.2188   -7.6734 H         1 UNK         0.0754 
    127 H127       32.5264    4.5720   -8.0038 H         1 UNK         0.0769 
    128 H128       31.9035    4.0627   -9.5653 H         1 UNK         0.0769 
    129 H129       33.3256    3.2776   -8.8769 H         1 UNK         0.0769 
    130 H130       32.9273    0.6364   -7.5099 H         1 UNK         0.2981 
    131 H131       33.7489    1.1473   -4.8136 H         1 UNK         0.0541 
    132 H132       33.4034   -0.3614   -2.9419 H         1 UNK         0.3459 
    133 H133       31.8001   -1.0063   -2.7192 H         1 UNK         0.3459 
    134 H134       34.7132   -1.1891   -4.9204 H         1 UNK         0.0612 
    135 H135       35.2630   -0.0980   -6.1496 H         1 UNK         0.0612 
    136 H136       34.2661   -4.1822   -7.0678 H         1 UNK         0.0624 
    137 H137       34.8928   -3.4390   -5.6229 H         1 UNK         0.0624 
@<TRIPOS>BOND
     1    1    2 1    
     2    1   72 1    
     3    1   73 1    
     4    1   74 1    
     5    2    3 2    
     6    2    4 am   BACKBONE|DICT|INTERRES
     7    4    5 1    
     8    4   75 1    
     9    5    6 1    
    10    5   35 1    
    11    5   76 1    
    12    6    7 1    
    13    6   77 1    
    14    6   78 1    
    15    7    8 1    
    16    8    9 1    
    17    8   79 1    
    18    8   80 1    
    19    9   10 ar   
    20    9   14 ar   
    21   10   11 ar   
    22   10   81 1    
    23   11   12 ar   
    24   11   71 1    
    25   12   13 ar   
    26   12   82 1    
    27   13   14 ar   
    28   13   15 1    
    29   14   83 1    
    30   15   16 1    
    31   15   84 1    
    32   15   85 1    
    33   16   17 1    
    34   17   18 1    
    35   17   86 1    
    36   17   87 1    
    37   18   19 1    
    38   18   37 1    
    39   18   88 1    
    40   19   20 am   BACKBONE|DICT|INTERRES
    41   19   89 1    
    42   20   21 2    
    43   20   22 1    
    44   22   23 1    
    45   22   24 1    
    46   22   90 1    
    47   23   91 1    
    48   23   92 1    
    49   23   93 1    
    50   24   25 am   BACKBONE|DICT|INTERRES
    51   24   94 1    
    52   25   26 2    
    53   25   27 1    
    54   27   28 1    
    55   27   29 1    
    56   27   95 1    
    57   28   96 1    
    58   28   97 1    
    59   28   98 1    
    60   29   30 am   BACKBONE|DICT|INTERRES
    61   29   99 1    
    62   30   31 2    
    63   30   32 1    
    64   32   33 1    
    65   32   34 1    
    66   32  100 1    
    67   33  101 1    
    68   33  102 1    
    69   33  103 1    
    70   34   35 am   BACKBONE|DICT|INTERRES
    71   34  104 1    
    72   35   36 2    
    73   37   38 2    
    74   37   39 am   BACKBONE|DICT|INTERRES
    75   39   40 1    
    76   39  105 1    
    77   40   41 1    
    78   40   42 1    
    79   40  106 1    
    80   41  107 1    
    81   41  108 1    
    82   41  109 1    
    83   42   43 2    
    84   42   44 am   BACKBONE|DICT|INTERRES
    85   44   45 1    
    86   44  110 1    
    87   45   46 1    
    88   45   47 1    
    89   45  111 1    
    90   46  112 1    
    91   46  113 1    
    92   46  114 1    
    93   47   48 2    
    94   47   49 am   BACKBONE|DICT|INTERRES
    95   49   50 1    
    96   49  115 1    
    97   50   51 1    
    98   50   52 1    
    99   50  116 1    
   100   51  117 1    
   101   51  118 1    
   102   51  119 1    
   103   52   53 2    
   104   52   54 am   BACKBONE|DICT|INTERRES
   105   54   55 1    
   106   54  120 1    
   107   55   56 1    
   108   55   57 1    
   109   55  121 1    
   110   56  122 1    
   111   56  123 1    
   112   56  124 1    
   113   57   58 2    
   114   57   59 am   BACKBONE|DICT|INTERRES
   115   59   60 1    
   116   59  125 1    
   117   60   61 1    
   118   60   62 1    
   119   60  126 1    
   120   61  127 1    
   121   61  128 1    
   122   61  129 1    
   123   62   63 2    
   124   62   64 am   BACKBONE|DICT|INTERRES
   125   64   65 1    
   126   64  130 1    
   127   65   66 1    
   128   65   69 1    
   129   65  131 1    
   130   66   67 am   BACKBONE|DICT|INTERRES
   131   66   68 2    
   132   67  132 1    
   133   67  133 1    
   134   69   70 1    
   135   69  134 1    
   136   69  135 1    
   137   70   71 1    
   138   71  136 1    
   139   71  137 1    
@<TRIPOS>SUBSTRUCTURE
     1 UNK         1 GROUP             0       ****    0 ROOT    
