@<TRIPOS>MOLECULE
3R137
137   139    1
SMALL
USER_CHARGES


@<TRIPOS>ATOM
      1 CA         28.4242   -4.5221    2.8786 C.3       0 UNK        -0.2020 
      2 C          27.9670   -4.3783    1.4344 C.2       0 UNK         0.4855 
      3 O          26.9557   -4.9704    1.0559 O.2       0 UNK        -0.5197 
      4 N          28.7074   -3.5979    0.6347 N.am      1 UNK        -0.4892 
      5 CA         28.4449   -3.2940   -0.7796 C.3       1 UNK         0.0835 
      6 C6         28.5488   -4.5352   -1.7173 C.3       12 UNK        -0.0855 
      7 S7         30.1133   -5.4751   -1.6054 S.3       12 UNK        -0.2931 
      8 C8         31.4086   -4.2015   -1.8074 C.3       12 UNK         0.0378 
      9 C9         31.2053   -3.2787   -3.0065 C.ar      12 UNK        -0.0802 
     10 C10        31.4433   -1.9069   -2.8667 C.ar      12 UNK        -0.0944 
     11 C11        31.2878   -1.0417   -3.9534 C.ar      12 UNK        -0.0787 
     12 C12        30.8560   -1.5529   -5.1788 C.ar      12 UNK        -0.0862 
     13 C13        30.6126   -2.9191   -5.3345 C.ar      12 UNK        -0.0733 
     14 C14        30.8092   -3.7808   -4.2521 C.ar      12 UNK        -0.0832 
     15 C15        30.1618   -3.4552   -6.6847 C.3       12 UNK         0.0240 
     16 S16        28.5148   -4.2395   -6.6481 S.3       12 UNK        -0.2522 
     17 C17        27.4408   -2.9625   -5.9101 C.3       12 UNK        -0.0967 
     18 CA         26.8784   -1.9487   -6.9442 C.3       5 UNK         0.0660 
     19 N          25.4962   -1.5662   -6.6367 N.am      5 UNK        -0.4015 
     20 C          24.6865   -0.8767   -7.4541 C.2       4 UNK         0.4946 
     21 O          25.0007   -0.5182   -8.5872 O.2       4 UNK        -0.5353 
     22 CA         23.3085   -0.4773   -6.8991 C.3       4 UNK         0.0277 
     23 CB         22.3047   -1.6297   -7.0609 C.3       4 UNK        -0.1981 
     24 N          23.3621   -0.0622   -5.4955 N.am      4 UNK        -0.4209 
     25 C          24.0203    1.0183   -5.0498 C.2       3 UNK         0.4942 
     26 O          24.5859    1.8241   -5.7857 O.2       3 UNK        -0.5208 
     27 CA         24.1121    1.2018   -3.5250 C.3       3 UNK         0.0250 
     28 CB         22.9291    2.0372   -3.0110 C.3       3 UNK        -0.1990 
     29 N          24.1813   -0.0632   -2.7848 N.am      3 UNK        -0.4232 
     30 C          25.1390   -0.9889   -2.9357 C.2       2 UNK         0.4993 
     31 O          26.0754   -0.8890   -3.7349 O.2       2 UNK        -0.5286 
     32 CA         24.9598   -2.2801   -2.1244 C.3       2 UNK         0.0209 
     33 CB         24.0673   -3.2681   -2.8947 C.3       2 UNK        -0.1931 
     34 N          26.2401   -2.9269   -1.8411 N.am      2 UNK        -0.4546 
     35 C          27.1267   -2.4983   -0.9324 C.2       1 UNK         0.5154 
     36 O          26.9374   -1.5108   -0.2170 O.2       1 UNK        -0.5181 
     37 C          27.7714   -0.6987   -7.0464 C.2       5 UNK         0.5014 
     38 O          28.5228   -0.5525   -8.0148 O.2       5 UNK        -0.5248 
     39 N          27.6358    0.1971   -6.0566 N.am      6 UNK        -0.4434 
     40 CA         28.3244    1.4864   -5.9930 C.3       6 UNK         0.0363 
     41 CB         28.0198    2.1707   -4.6525 C.3       6 UNK        -0.1936 
     42 C          27.9956    2.4159   -7.1762 C.2       6 UNK         0.5081 
     43 O          28.8846    3.1213   -7.6503 O.2       6 UNK        -0.5248 
     44 N          26.7404    2.3914   -7.6406 N.am      7 UNK        -0.4718 
     45 CA         26.2815    3.1334   -8.8129 C.3       7 UNK         0.0273 
     46 CB         24.7486    3.2518   -8.7805 C.3       7 UNK        -0.1935 
     47 C          26.7513    2.5057  -10.1354 C.2       7 UNK         0.5018 
     48 O          27.2771    3.2257  -10.9853 O.2       7 UNK        -0.5186 
     49 N          26.5174    1.1962  -10.3082 N.am      8 UNK        -0.4240 
     50 CA         26.7317    0.4942  -11.5757 C.3       8 UNK         0.0235 
     51 CB         25.9104   -0.8056  -11.6011 C.3       8 UNK        -0.2000 
     52 C          28.2060    0.1972  -11.8803 C.2       8 UNK         0.4941 
     53 O          28.6367    0.4281  -13.0114 O.2       8 UNK        -0.5273 
     54 N          28.9359   -0.3413  -10.8952 N.am      9 UNK        -0.4262 
     55 CA         30.3105   -0.8221  -11.0649 C.3       9 UNK         0.0264 
     56 CB         30.3882   -2.2941  -10.6297 C.3       9 UNK        -0.1955 
     57 C          31.3324    0.0330  -10.3036 C.2       9 UNK         0.5031 
     58 O          32.4450    0.2026  -10.8060 O.2       9 UNK        -0.5390 
     59 N          30.9393    0.5639   -9.1354 N.am      10 UNK        -0.4204 
     60 CA         31.7398    1.3879   -8.2180 C.3       10 UNK         0.0237 
     61 CB         32.2343    2.6790   -8.9090 C.3       10 UNK        -0.1985 
     62 C          32.8766    0.6109   -7.5262 C.2       10 UNK         0.4970 
     63 O          33.0418   -0.5914   -7.7435 O.2       10 UNK        -0.4914 
     64 N          33.6144    1.3137   -6.6624 N.am      11 UNK        -0.4285 
     65 CA         34.7411    0.7936   -5.8825 C.3       11 UNK         0.1007 
     66 C          35.7159    1.9320   -5.4782 C.2       11 UNK         0.5703 
     67 N          36.8821    1.5936   -4.9450 N.am      11 UNK        -0.7361 
     68 O          35.4299    3.1175   -5.6458 O.2       11 UNK        -0.4986 
     69 C69        34.2858   -0.0994   -4.6924 C.3       12 UNK        -0.0947 
     70 S70        33.3446    0.7668   -3.3816 S.3       12 UNK        -0.2240 
     71 C71        31.6027    0.4423   -3.8178 C.3       12 UNK         0.0194 
     72 H72        28.6296   -5.5682    3.1039 H         1 UNK         0.0906 
     73 H73        29.3286   -3.9486    3.0810 H         1 UNK         0.0906 
     74 H74        27.6441   -4.1745    3.5554 H         1 UNK         0.0906 
     75 H75        29.5044   -3.1189    1.0299 H         1 UNK         0.3140 
     76 H76        29.2165   -2.5861   -1.0812 H         1 UNK         0.1085 
     77 H77        27.7406   -5.2390   -1.5106 H         1 UNK         0.0836 
     78 H78        28.4285   -4.2349   -2.7598 H         1 UNK         0.0836 
     79 H79        31.4686   -3.6238   -0.8839 H         1 UNK         0.0731 
     80 H80        32.3723   -4.7009   -1.9147 H         1 UNK         0.0731 
     81 H81        31.7740   -1.5088   -1.9169 H         1 UNK         0.1312 
     82 H82        30.7271   -0.8895   -6.0222 H         1 UNK         0.1406 
     83 H83        30.6342   -4.8408   -4.3772 H         1 UNK         0.1631 
     84 H84        30.1528   -2.6540   -7.4216 H         1 UNK         0.0717 
     85 H85        30.8913   -4.1844   -7.0392 H         1 UNK         0.0717 
     86 H86        26.6185   -3.5141   -5.4521 H         1 UNK         0.0934 
     87 H87        27.9418   -2.4748   -5.0713 H         1 UNK         0.0934 
     88 H88        26.8588   -2.4196   -7.9297 H         1 UNK         0.0739 
     89 H89        25.1885   -1.7396   -5.6910 H         1 UNK         0.3093 
     90 H90        22.9511    0.3721   -7.4854 H         1 UNK         0.0818 
     91 H91        21.3033   -1.3298   -6.7516 H         1 UNK         0.0819 
     92 H92        22.2383   -1.9435   -8.1038 H         1 UNK         0.0819 
     93 H93        22.5900   -2.5046   -6.4752 H         1 UNK         0.0819 
     94 H94        22.9048   -0.6575   -4.8209 H         1 UNK         0.3041 
     95 H95        25.0322    1.7510   -3.3170 H         1 UNK         0.0784 
     96 H96        22.8716    2.9933   -3.5336 H         1 UNK         0.0793 
     97 H97        21.9766    1.5269   -3.1597 H         1 UNK         0.0793 
     98 H98        23.0307    2.2580   -1.9482 H         1 UNK         0.0793 
     99 H99        23.4409   -0.2328   -2.1186 H         1 UNK         0.3024 
    100 H100       24.4805   -2.0351   -1.1734 H         1 UNK         0.1171 
    101 H101       23.9054   -4.1824   -2.3231 H         1 UNK         0.0786 
    102 H102       23.0844   -2.8396   -3.0951 H         1 UNK         0.0786 
    103 H103       24.5035   -3.5478   -3.8545 H         1 UNK         0.0786 
    104 H104       26.4701   -3.7334   -2.4010 H         1 UNK         0.2977 
    105 H105       27.0152   -0.0305   -5.2842 H         1 UNK         0.3127 
    106 H106       29.3916    1.2748   -6.0209 H         1 UNK         0.0770 
    107 H107       26.9681    2.4434   -4.5701 H         1 UNK         0.0814 
    108 H108       28.6017    3.0869   -4.5442 H         1 UNK         0.0814 
    109 H109       28.2680    1.5255   -3.8093 H         1 UNK         0.0814 
    110 H110       26.0413    1.8605   -7.1298 H         1 UNK         0.2983 
    111 H111       26.6950    4.1433   -8.7617 H         1 UNK         0.0947 
    112 H112       24.3801    3.8061   -9.6447 H         1 UNK         0.0806 
    113 H113       24.4127    3.7808   -7.8884 H         1 UNK         0.0806 
    114 H114       24.2656    2.2740   -8.7877 H         1 UNK         0.0806 
    115 H115       26.0579    0.6679   -9.5685 H         1 UNK         0.3000 
    116 H116       26.3555    1.1326  -12.3785 H         1 UNK         0.0850 
    117 H117       26.0221   -1.3204  -12.5563 H         1 UNK         0.0810 
    118 H118       24.8477   -0.6055  -11.4630 H         1 UNK         0.0810 
    119 H119       26.2237   -1.4982  -10.8187 H         1 UNK         0.0810 
    120 H120       28.5203   -0.4582   -9.9754 H         1 UNK         0.3040 
    121 H121       30.6000   -0.7843  -12.1173 H         1 UNK         0.0766 
    122 H122       29.8111   -2.9314  -11.2997 H         1 UNK         0.0812 
    123 H123       29.9989   -2.4367   -9.6239 H         1 UNK         0.0812 
    124 H124       31.4170   -2.6572  -10.6418 H         1 UNK         0.0812 
    125 H125       30.0243    0.2911   -8.7844 H         1 UNK         0.3205 
    126 H126       31.0629    1.6879   -7.4224 H         1 UNK         0.0754 
    127 H127       32.6261    3.3942   -8.1854 H         1 UNK         0.0769 
    128 H128       31.4200    3.1777   -9.4354 H         1 UNK         0.0769 
    129 H129       33.0278    2.4802   -9.6298 H         1 UNK         0.0769 
    130 H130       33.4581    2.3060   -6.5456 H         1 UNK         0.2981 
    131 H131       35.3185    0.1635   -6.5620 H         1 UNK         0.0541 
    132 H132       37.1301    0.6272   -4.8013 H         1 UNK         0.3459 
    133 H133       37.5263    2.3210   -4.6768 H         1 UNK         0.3459 
    134 H134       35.1576   -0.5514   -4.2175 H         1 UNK         0.0612 
    135 H135       33.7086   -0.9444   -5.0662 H         1 UNK         0.0612 
    136 H136       31.3753    0.9758   -4.7405 H         1 UNK         0.0624 
    137 H137       30.9604    0.8730   -3.0487 H         1 UNK         0.0624 
@<TRIPOS>BOND
     1    1    2 1    
     2    1   72 1    
     3    1   73 1    
     4    1   74 1    
     5    2    3 2    
     6    2    4 am   BACKBONE|DICT|INTERRES
     7    4    5 1    
     8    4   75 1    
     9    5    6 1    
    10    5   35 1    
    11    5   76 1    
    12    6    7 1    
    13    6   77 1    
    14    6   78 1    
    15    7    8 1    
    16    8    9 1    
    17    8   79 1    
    18    8   80 1    
    19    9   10 ar   
    20    9   14 ar   
    21   10   11 ar   
    22   10   81 1    
    23   11   12 ar   
    24   11   71 1    
    25   12   13 ar   
    26   12   82 1    
    27   13   14 ar   
    28   13   15 1    
    29   14   83 1    
    30   15   16 1    
    31   15   84 1    
    32   15   85 1    
    33   16   17 1    
    34   17   18 1    
    35   17   86 1    
    36   17   87 1    
    37   18   19 1    
    38   18   37 1    
    39   18   88 1    
    40   19   20 am   BACKBONE|DICT|INTERRES
    41   19   89 1    
    42   20   21 2    
    43   20   22 1    
    44   22   23 1    
    45   22   24 1    
    46   22   90 1    
    47   23   91 1    
    48   23   92 1    
    49   23   93 1    
    50   24   25 am   BACKBONE|DICT|INTERRES
    51   24   94 1    
    52   25   26 2    
    53   25   27 1    
    54   27   28 1    
    55   27   29 1    
    56   27   95 1    
    57   28   96 1    
    58   28   97 1    
    59   28   98 1    
    60   29   30 am   BACKBONE|DICT|INTERRES
    61   29   99 1    
    62   30   31 2    
    63   30   32 1    
    64   32   33 1    
    65   32   34 1    
    66   32  100 1    
    67   33  101 1    
    68   33  102 1    
    69   33  103 1    
    70   34   35 am   BACKBONE|DICT|INTERRES
    71   34  104 1    
    72   35   36 2    
    73   37   38 2    
    74   37   39 am   BACKBONE|DICT|INTERRES
    75   39   40 1    
    76   39  105 1    
    77   40   41 1    
    78   40   42 1    
    79   40  106 1    
    80   41  107 1    
    81   41  108 1    
    82   41  109 1    
    83   42   43 2    
    84   42   44 am   BACKBONE|DICT|INTERRES
    85   44   45 1    
    86   44  110 1    
    87   45   46 1    
    88   45   47 1    
    89   45  111 1    
    90   46  112 1    
    91   46  113 1    
    92   46  114 1    
    93   47   48 2    
    94   47   49 am   BACKBONE|DICT|INTERRES
    95   49   50 1    
    96   49  115 1    
    97   50   51 1    
    98   50   52 1    
    99   50  116 1    
   100   51  117 1    
   101   51  118 1    
   102   51  119 1    
   103   52   53 2    
   104   52   54 am   BACKBONE|DICT|INTERRES
   105   54   55 1    
   106   54  120 1    
   107   55   56 1    
   108   55   57 1    
   109   55  121 1    
   110   56  122 1    
   111   56  123 1    
   112   56  124 1    
   113   57   58 2    
   114   57   59 am   BACKBONE|DICT|INTERRES
   115   59   60 1    
   116   59  125 1    
   117   60   61 1    
   118   60   62 1    
   119   60  126 1    
   120   61  127 1    
   121   61  128 1    
   122   61  129 1    
   123   62   63 2    
   124   62   64 am   BACKBONE|DICT|INTERRES
   125   64   65 1    
   126   64  130 1    
   127   65   66 1    
   128   65   69 1    
   129   65  131 1    
   130   66   67 am   BACKBONE|DICT|INTERRES
   131   66   68 2    
   132   67  132 1    
   133   67  133 1    
   134   69   70 1    
   135   69  134 1    
   136   69  135 1    
   137   70   71 1    
   138   71  136 1    
   139   71  137 1    
@<TRIPOS>SUBSTRUCTURE
     1 UNK         1 GROUP             0       ****    0 ROOT    
