@<TRIPOS>MOLECULE
3R137
137   139    1
SMALL
USER_CHARGES


@<TRIPOS>ATOM
      1 CA         24.9364   -6.1043   -4.1178 C.3       0 UNK        -0.2020 
      2 C          24.9843   -5.1696   -2.9194 C.2       0 UNK         0.4855 
      3 O          23.9878   -4.5142   -2.6151 O.2       0 UNK        -0.5197 
      4 N          26.1322   -5.0970   -2.2321 N.am      1 UNK        -0.4892 
      5 CA         26.3462   -4.2267   -1.0693 C.3       1 UNK         0.0835 
      6 C6         27.5963   -4.6671   -0.2413 C.3       12 UNK        -0.0855 
      7 S7         29.1148   -3.6551   -0.3423 S.3       12 UNK        -0.2931 
      8 C8         29.7487   -4.1096   -1.9960 C.3       12 UNK         0.0378 
      9 C9         30.3767   -2.9656   -2.7969 C.ar      12 UNK        -0.0802 
     10 C10        30.7591   -3.2166   -4.1182 C.ar      12 UNK        -0.0944 
     11 C11        31.3207   -2.2084   -4.9065 C.ar      12 UNK        -0.0787 
     12 C12        31.5073   -0.9330   -4.3659 C.ar      12 UNK        -0.0862 
     13 C13        31.1298   -0.6619   -3.0488 C.ar      12 UNK        -0.0733 
     14 C14        30.5727   -1.6809   -2.2711 C.ar      12 UNK        -0.0832 
     15 C15        31.3179    0.7280   -2.4519 C.3       12 UNK         0.0240 
     16 S16        30.2354    1.9955   -3.1958 S.3       12 UNK        -0.2522 
     17 C17        28.6057    1.1743   -3.2868 C.3       12 UNK        -0.0967 
     18 CA         28.2445    0.8474   -4.7598 C.3       5 UNK         0.0660 
     19 N          27.5372   -0.4282   -4.9008 N.am      5 UNK        -0.4015 
     20 C          27.2856   -1.0201   -6.0784 C.2       4 UNK         0.4946 
     21 O          27.6559   -0.5804   -7.1669 O.2       4 UNK        -0.5353 
     22 CA         26.4143   -2.2825   -6.0423 C.3       4 UNK         0.0277 
     23 CB         27.2555   -3.5219   -5.6948 C.3       4 UNK        -0.1981 
     24 N          25.2937   -2.1282   -5.1094 N.am      4 UNK        -0.4209 
     25 C          24.2479   -1.3172   -5.3389 C.2       3 UNK         0.4942 
     26 O          24.0856   -0.7001   -6.3907 O.2       3 UNK        -0.5208 
     27 CA         23.2336   -1.1156   -4.2002 C.3       3 UNK         0.0250 
     28 CB         22.0925   -2.1397   -4.2984 C.3       3 UNK        -0.1990 
     29 N          23.8472   -1.1675   -2.8708 N.am      3 UNK        -0.4232 
     30 C          24.6937   -0.2377   -2.4005 C.2       2 UNK         0.4993 
     31 O          25.0117    0.7714   -3.0282 O.2       2 UNK        -0.5286 
     32 CA         25.3445   -0.4946   -1.0284 C.3       2 UNK         0.0209 
     33 CB         24.5053    0.1395    0.0918 C.3       2 UNK        -0.1931 
     34 N          25.5706   -1.9136   -0.7300 N.am      2 UNK        -0.4546 
     35 C          26.2969   -2.7396   -1.4957 C.2       1 UNK         0.5154 
     36 O          26.8645   -2.3743   -2.5303 O.2       1 UNK        -0.5181 
     37 C          27.4935    2.0142   -5.4378 C.2       5 UNK         0.5014 
     38 O          28.1201    2.8329   -6.1101 O.2       5 UNK        -0.5248 
     39 N          26.1626    2.0560   -5.2768 N.am      6 UNK        -0.4434 
     40 CA         25.2779    3.0144   -5.9425 C.3       6 UNK         0.0363 
     41 CB         23.8610    2.9026   -5.3582 C.3       6 UNK        -0.1936 
     42 C          25.2464    2.8466   -7.4722 C.2       6 UNK         0.5081 
     43 O          25.1769    3.8505   -8.1820 O.2       6 UNK        -0.5248 
     44 N          25.2973    1.5956   -7.9531 N.am      7 UNK        -0.4718 
     45 CA         25.3464    1.2602   -9.3769 C.3       7 UNK         0.0273 
     46 CB         25.0422   -0.2333   -9.5794 C.3       7 UNK        -0.1935 
     47 C          26.6839    1.6463  -10.0289 C.2       7 UNK         0.5018 
     48 O          26.6714    2.3122  -11.0657 O.2       7 UNK        -0.5186 
     49 N          27.8048    1.2367   -9.4201 N.am      8 UNK        -0.4240 
     50 CA         29.1540    1.5179   -9.9051 C.3       8 UNK         0.0235 
     51 CB         29.4919    0.6242  -11.1180 C.3       8 UNK        -0.2000 
     52 C          30.1550    1.3122   -8.7653 C.2       8 UNK         0.4941 
     53 O          30.5954    0.1847   -8.5453 O.2       8 UNK        -0.5273 
     54 N          30.5340    2.4017   -8.0835 N.am      9 UNK        -0.4262 
     55 CA         31.4785    2.4085   -6.9559 C.3       9 UNK         0.0264 
     56 CB         31.5541    3.8250   -6.3640 C.3       9 UNK        -0.1955 
     57 C          32.8914    1.8890   -7.2878 C.2       9 UNK         0.5031 
     58 O          33.5957    1.4406   -6.3833 O.2       9 UNK        -0.5390 
     59 N          33.2737    1.9422   -8.5708 N.am      10 UNK        -0.4204 
     60 CA         34.5079    1.3634   -9.1069 C.3       10 UNK         0.0237 
     61 CB         34.8178    2.0300  -10.4583 C.3       10 UNK        -0.1985 
     62 C          34.4576   -0.1714   -9.2624 C.2       10 UNK         0.4970 
     63 O          35.5064   -0.7706   -9.5057 O.2       10 UNK        -0.4914 
     64 N          33.2655   -0.7736   -9.1393 N.am      11 UNK        -0.4285 
     65 CA         32.9808   -2.2038   -9.3317 C.3       11 UNK         0.1007 
     66 C          33.1747   -2.6714  -10.8073 C.2       11 UNK         0.5703 
     67 N          33.2589   -3.9714  -11.0611 N.am      11 UNK        -0.7361 
     68 O          33.1976   -1.8707  -11.7411 O.2       11 UNK        -0.4986 
     69 C69        33.6799   -3.1244   -8.2816 C.3       12 UNK        -0.0947 
     70 S70        33.5131   -2.5989   -6.5397 S.3       12 UNK        -0.2240 
     71 C71        31.7083   -2.4908   -6.3480 C.3       12 UNK         0.0194 
     72 H72        24.5791   -5.5687   -4.9970 H         1 UNK         0.0906 
     73 H73        25.9155   -6.5234   -4.3485 H         1 UNK         0.0906 
     74 H74        24.2508   -6.9281   -3.9213 H         1 UNK         0.0906 
     75 H75        26.9294   -5.6367   -2.5352 H         1 UNK         0.3140 
     76 H76        25.4798   -4.3947   -0.4245 H         1 UNK         0.1085 
     77 H77        27.3187   -4.6639    0.8141 H         1 UNK         0.0836 
     78 H78        27.8569   -5.7068   -0.4469 H         1 UNK         0.0836 
     79 H79        28.9321   -4.5218   -2.5888 H         1 UNK         0.0731 
     80 H80        30.4813   -4.9093   -1.8791 H         1 UNK         0.0731 
     81 H81        30.6116   -4.2024   -4.5382 H         1 UNK         0.1312 
     82 H82        31.9434   -0.1516   -4.9722 H         1 UNK         0.1406 
     83 H83        30.2856   -1.4545   -1.2550 H         1 UNK         0.1631 
     84 H84        32.3565    1.0351   -2.5819 H         1 UNK         0.0717 
     85 H85        31.1398    0.7119   -1.3756 H         1 UNK         0.0717 
     86 H86        28.6230    0.2700   -2.6785 H         1 UNK         0.0934 
     87 H87        27.8558    1.8129   -2.8149 H         1 UNK         0.0934 
     88 H88        29.1705    0.7075   -5.3211 H         1 UNK         0.0739 
     89 H89        27.2237   -0.8853   -4.0520 H         1 UNK         0.3093 
     90 H90        26.0044   -2.4300   -7.0439 H         1 UNK         0.0818 
     91 H91        28.0896   -3.6280   -6.3898 H         1 UNK         0.0819 
     92 H92        27.6804   -3.4661   -4.6932 H         1 UNK         0.0819 
     93 H93        26.6648   -4.4337   -5.7633 H         1 UNK         0.0819 
     94 H94        25.3997   -2.5439   -4.1927 H         1 UNK         0.3041 
     95 H95        22.7980   -0.1217   -4.3222 H         1 UNK         0.0784 
     96 H96        21.5718   -2.0470   -5.2525 H         1 UNK         0.0793 
     97 H97        22.4567   -3.1645   -4.2292 H         1 UNK         0.0793 
     98 H98        21.3535   -1.9903   -3.5111 H         1 UNK         0.0793 
     99 H99        23.6661   -1.9923   -2.3141 H         1 UNK         0.3024 
    100 H100       26.3213   -0.0057   -1.0436 H         1 UNK         0.1171 
    101 H101       23.5250   -0.3309    0.1789 H         1 UNK         0.0786 
    102 H102       25.0051    0.0588    1.0573 H         1 UNK         0.0786 
    103 H103       24.3415    1.2015   -0.0975 H         1 UNK         0.0786 
    104 H104       25.1259   -2.2773    0.1009 H         1 UNK         0.2977 
    105 H105       25.7261    1.4089   -4.6228 H         1 UNK         0.3127 
    106 H106       25.6560    4.0162   -5.7277 H         1 UNK         0.0770 
    107 H107       23.4269    1.9197   -5.5422 H         1 UNK         0.0814 
    108 H108       23.1955    3.6417   -5.8060 H         1 UNK         0.0814 
    109 H109       23.8596    3.0740   -4.2816 H         1 UNK         0.0814 
    110 H110       25.2925    0.8194   -7.3009 H         1 UNK         0.2983 
    111 H111       24.5610    1.8290   -9.8796 H         1 UNK         0.0947 
    112 H112       24.0546   -0.4909   -9.1964 H         1 UNK         0.0806 
    113 H113       25.7706   -0.8695   -9.0769 H         1 UNK         0.0806 
    114 H114       25.0573   -0.4940  -10.6384 H         1 UNK         0.0806 
    115 H115       27.7420    0.6762   -8.5692 H         1 UNK         0.3000 
    116 H116       29.2072    2.5619  -10.2218 H         1 UNK         0.0850 
    117 H117       30.5250    0.7696  -11.4365 H         1 UNK         0.0810 
    118 H118       28.8566    0.8517  -11.9739 H         1 UNK         0.0810 
    119 H119       29.3692   -0.4341  -10.8837 H         1 UNK         0.0810 
    120 H120       30.0926    3.2844   -8.2997 H         1 UNK         0.3040 
    121 H121       31.0703    1.7455   -6.1926 H         1 UNK         0.0766 
    122 H122       31.9243    4.5491   -7.0905 H         1 UNK         0.0812 
    123 H123       30.5767    4.1614   -6.0173 H         1 UNK         0.0812 
    124 H124       32.2237    3.8519   -5.5031 H         1 UNK         0.0812 
    125 H125       32.6327    2.3448   -9.2385 H         1 UNK         0.3205 
    126 H126       35.3239    1.5919   -8.4179 H         1 UNK         0.0754 
    127 H127       35.7578    1.6601  -10.8704 H         1 UNK         0.0769 
    128 H128       34.9157    3.1110  -10.3558 H         1 UNK         0.0769 
    129 H129       34.0389    1.8294  -11.1953 H         1 UNK         0.0769 
    130 H130       32.4441   -0.2123   -8.9371 H         1 UNK         0.2981 
    131 H131       31.9058   -2.2900   -9.1760 H         1 UNK         0.0541 
    132 H132       33.2236   -4.6527  -10.3198 H         1 UNK         0.3459 
    133 H133       33.3645   -4.2755  -12.0164 H         1 UNK         0.3459 
    134 H134       34.7463   -3.2010   -8.4996 H         1 UNK         0.0612 
    135 H135       33.2858   -4.1395   -8.3451 H         1 UNK         0.0612 
    136 H136       31.3196   -1.6916   -6.9765 H         1 UNK         0.0624 
    137 H137       31.2496   -3.4166   -6.6987 H         1 UNK         0.0624 
@<TRIPOS>BOND
     1    1    2 1    
     2    1   72 1    
     3    1   73 1    
     4    1   74 1    
     5    2    3 2    
     6    2    4 am   BACKBONE|DICT|INTERRES
     7    4    5 1    
     8    4   75 1    
     9    5    6 1    
    10    5   35 1    
    11    5   76 1    
    12    6    7 1    
    13    6   77 1    
    14    6   78 1    
    15    7    8 1    
    16    8    9 1    
    17    8   79 1    
    18    8   80 1    
    19    9   10 ar   
    20    9   14 ar   
    21   10   11 ar   
    22   10   81 1    
    23   11   12 ar   
    24   11   71 1    
    25   12   13 ar   
    26   12   82 1    
    27   13   14 ar   
    28   13   15 1    
    29   14   83 1    
    30   15   16 1    
    31   15   84 1    
    32   15   85 1    
    33   16   17 1    
    34   17   18 1    
    35   17   86 1    
    36   17   87 1    
    37   18   19 1    
    38   18   37 1    
    39   18   88 1    
    40   19   20 am   BACKBONE|DICT|INTERRES
    41   19   89 1    
    42   20   21 2    
    43   20   22 1    
    44   22   23 1    
    45   22   24 1    
    46   22   90 1    
    47   23   91 1    
    48   23   92 1    
    49   23   93 1    
    50   24   25 am   BACKBONE|DICT|INTERRES
    51   24   94 1    
    52   25   26 2    
    53   25   27 1    
    54   27   28 1    
    55   27   29 1    
    56   27   95 1    
    57   28   96 1    
    58   28   97 1    
    59   28   98 1    
    60   29   30 am   BACKBONE|DICT|INTERRES
    61   29   99 1    
    62   30   31 2    
    63   30   32 1    
    64   32   33 1    
    65   32   34 1    
    66   32  100 1    
    67   33  101 1    
    68   33  102 1    
    69   33  103 1    
    70   34   35 am   BACKBONE|DICT|INTERRES
    71   34  104 1    
    72   35   36 2    
    73   37   38 2    
    74   37   39 am   BACKBONE|DICT|INTERRES
    75   39   40 1    
    76   39  105 1    
    77   40   41 1    
    78   40   42 1    
    79   40  106 1    
    80   41  107 1    
    81   41  108 1    
    82   41  109 1    
    83   42   43 2    
    84   42   44 am   BACKBONE|DICT|INTERRES
    85   44   45 1    
    86   44  110 1    
    87   45   46 1    
    88   45   47 1    
    89   45  111 1    
    90   46  112 1    
    91   46  113 1    
    92   46  114 1    
    93   47   48 2    
    94   47   49 am   BACKBONE|DICT|INTERRES
    95   49   50 1    
    96   49  115 1    
    97   50   51 1    
    98   50   52 1    
    99   50  116 1    
   100   51  117 1    
   101   51  118 1    
   102   51  119 1    
   103   52   53 2    
   104   52   54 am   BACKBONE|DICT|INTERRES
   105   54   55 1    
   106   54  120 1    
   107   55   56 1    
   108   55   57 1    
   109   55  121 1    
   110   56  122 1    
   111   56  123 1    
   112   56  124 1    
   113   57   58 2    
   114   57   59 am   BACKBONE|DICT|INTERRES
   115   59   60 1    
   116   59  125 1    
   117   60   61 1    
   118   60   62 1    
   119   60  126 1    
   120   61  127 1    
   121   61  128 1    
   122   61  129 1    
   123   62   63 2    
   124   62   64 am   BACKBONE|DICT|INTERRES
   125   64   65 1    
   126   64  130 1    
   127   65   66 1    
   128   65   69 1    
   129   65  131 1    
   130   66   67 am   BACKBONE|DICT|INTERRES
   131   66   68 2    
   132   67  132 1    
   133   67  133 1    
   134   69   70 1    
   135   69  134 1    
   136   69  135 1    
   137   70   71 1    
   138   71  136 1    
   139   71  137 1    
@<TRIPOS>SUBSTRUCTURE
     1 UNK         1 GROUP             0       ****    0 ROOT    
