@<TRIPOS>MOLECULE
3R137
137   139    1
SMALL
USER_CHARGES


@<TRIPOS>ATOM
      1 CA         26.2122   -6.0652   -3.1448 C.3       0 UNK        -0.2020 
      2 C          26.1202   -5.1530   -1.9319 C.2       0 UNK         0.4855 
      3 O          25.8008   -5.6199   -0.8384 O.2       0 UNK        -0.5197 
      4 N          26.3882   -3.8568   -2.1159 N.am      1 UNK        -0.4892 
      5 CA         26.2868   -2.8207   -1.0911 C.3       1 UNK         0.0835 
      6 C6         27.4841   -2.8423   -0.0954 C.3       12 UNK        -0.0855 
      7 S7         29.0664   -2.2041   -0.7523 S.3       12 UNK        -0.2931 
      8 C8         29.8655   -3.7009   -1.4192 C.3       12 UNK         0.0378 
      9 C9         30.3326   -3.4793   -2.8520 C.ar      12 UNK        -0.0802 
     10 C10        31.2900   -2.5012   -3.1331 C.ar      12 UNK        -0.0944 
     11 C11        31.7070   -2.2557   -4.4444 C.ar      12 UNK        -0.0787 
     12 C12        31.1586   -3.0170   -5.4860 C.ar      12 UNK        -0.0862 
     13 C13        30.2233   -4.0231   -5.2175 C.ar      12 UNK        -0.0733 
     14 C14        29.8144   -4.2468   -3.8979 C.ar      12 UNK        -0.0832 
     15 C15        29.6957   -4.9068   -6.3417 C.3       12 UNK         0.0240 
     16 S16        27.8732   -4.9460   -6.4116 S.3       12 UNK        -0.2522 
     17 C17        27.4879   -3.9560   -7.8972 C.3       12 UNK        -0.0967 
     18 CA         26.8719   -2.5682   -7.5950 C.3       5 UNK         0.0660 
     19 N          25.7206   -2.6473   -6.6897 N.am      5 UNK        -0.4015 
     20 C          24.8886   -1.6454   -6.3751 C.2       4 UNK         0.4946 
     21 O          25.0620   -0.4797   -6.7378 O.2       4 UNK        -0.5353 
     22 CA         23.6477   -2.0040   -5.5402 C.3       4 UNK         0.0277 
     23 CB         23.6927   -3.4104   -4.9055 C.3       4 UNK        -0.1981 
     24 N          23.4705   -1.0161   -4.4793 N.am      4 UNK        -0.4209 
     25 C          22.4266   -0.1845   -4.3618 C.2       3 UNK         0.4942 
     26 O          21.4963   -0.1399   -5.1689 O.2       3 UNK        -0.5208 
     27 CA         22.3697    0.7318   -3.1233 C.3       3 UNK         0.0250 
     28 CB         21.1156    0.4306   -2.2832 C.3       3 UNK        -0.1990 
     29 N          23.5457    0.6133   -2.2584 N.am      3 UNK        -0.4232 
     30 C          24.6775    1.3121   -2.4073 C.2       2 UNK         0.4993 
     31 O          24.8530    2.1627   -3.2791 O.2       2 UNK        -0.5286 
     32 CA         25.8101    1.0018   -1.4141 C.3       2 UNK         0.0209 
     33 CB         25.6902    1.9015   -0.1730 C.3       2 UNK        -0.1931 
     34 N          25.8923   -0.4017   -0.9851 N.am      2 UNK        -0.4546 
     35 C          26.0620   -1.4632   -1.7882 C.2       1 UNK         0.5154 
     36 O          26.0449   -1.4031   -3.0235 O.2       1 UNK        -0.5181 
     37 C          27.9494   -1.5344   -7.2164 C.2       5 UNK         0.5014 
     38 O          28.6725   -1.1019   -8.1124 O.2       5 UNK        -0.5248 
     39 N          28.0141   -1.0924   -5.9525 N.am      6 UNK        -0.4434 
     40 CA         28.9066   -0.0145   -5.5110 C.3       6 UNK         0.0363 
     41 CB         28.8424    0.1004   -3.9843 C.3       6 UNK        -0.1936 
     42 C          28.6038    1.3518   -6.1584 C.2       6 UNK         0.5081 
     43 O          29.4873    2.2079   -6.1900 O.2       6 UNK        -0.5248 
     44 N          27.3779    1.5353   -6.6695 N.am      7 UNK        -0.4718 
     45 CA         26.9739    2.7133   -7.4378 C.3       7 UNK         0.0273 
     46 CB         25.4694    2.9476   -7.2207 C.3       7 UNK        -0.1935 
     47 C          27.2875    2.5857   -8.9420 C.2       7 UNK         0.5018 
     48 O          27.2020    3.5922   -9.6473 O.2       7 UNK        -0.5186 
     49 N          27.6088    1.3730   -9.4168 N.am      8 UNK        -0.4240 
     50 CA         27.8378    1.0597  -10.8304 C.3       8 UNK         0.0235 
     51 CB         26.9843   -0.1597  -11.2195 C.3       8 UNK        -0.2000 
     52 C          29.3193    0.7896  -11.1320 C.2       8 UNK         0.4941 
     53 O          29.8133    1.2367  -12.1684 O.2       8 UNK        -0.5273 
     54 N          29.9950    0.0502  -10.2432 N.am      9 UNK        -0.4262 
     55 CA         31.4116   -0.3018  -10.3318 C.3       9 UNK         0.0264 
     56 CB         31.7025   -1.4038   -9.2981 C.3       9 UNK        -0.1955 
     57 C          32.3267    0.9077  -10.0860 C.2       9 UNK         0.5031 
     58 O          31.9115    1.8825   -9.4547 O.2       9 UNK        -0.5390 
     59 N          33.5862    0.7930  -10.5306 N.am      10 UNK        -0.4204 
     60 CA         34.6398    1.8007  -10.3465 C.3       10 UNK         0.0237 
     61 CB         35.9062    1.3551  -11.0959 C.3       10 UNK        -0.1985 
     62 C          34.9669    2.1105   -8.8723 C.2       10 UNK         0.4970 
     63 O          35.4034    3.2232   -8.5753 O.2       10 UNK        -0.4914 
     64 N          34.7324    1.1371   -7.9831 N.am      11 UNK        -0.4285 
     65 CA         34.7869    1.2997   -6.5248 C.3       11 UNK         0.1007 
     66 C          33.5766    2.0627   -5.9061 C.2       11 UNK         0.5703 
     67 N          32.5174    2.3605   -6.6491 N.am      11 UNK        -0.7361 
     68 O          33.6014    2.3855   -4.7209 O.2       11 UNK        -0.4986 
     69 C69        35.0543   -0.0549   -5.8139 C.3       12 UNK        -0.0947 
     70 S70        33.8025   -1.3516   -6.1305 S.3       12 UNK        -0.2240 
     71 C71        32.7125   -1.1304   -4.6831 C.3       12 UNK         0.0194 
     72 H72        26.2256   -5.4987   -4.0739 H         1 UNK         0.0906 
     73 H73        27.1173   -6.6700   -3.0956 H         1 UNK         0.0906 
     74 H74        25.3545   -6.7367   -3.1771 H         1 UNK         0.0906 
     75 H75        26.6111   -3.4859   -3.0310 H         1 UNK         0.3140 
     76 H76        25.3737   -3.0152   -0.5237 H         1 UNK         0.1085 
     77 H77        27.6352   -3.8486    0.2978 H         1 UNK         0.0836 
     78 H78        27.2368   -2.2395    0.7797 H         1 UNK         0.0836 
     79 H79        30.7227   -3.9557   -0.7947 H         1 UNK         0.0731 
     80 H80        29.1830   -4.5499   -1.3652 H         1 UNK         0.0731 
     81 H81        31.6908   -1.9079   -2.3222 H         1 UNK         0.1312 
     82 H82        31.4642   -2.8356   -6.5065 H         1 UNK         0.1406 
     83 H83        29.0919   -5.0232   -3.6888 H         1 UNK         0.1631 
     84 H84        30.0517   -5.9235   -6.1707 H         1 UNK         0.0717 
     85 H85        30.1093   -4.6039   -7.3042 H         1 UNK         0.0717 
     86 H86        28.3653   -3.8656   -8.5406 H         1 UNK         0.0934 
     87 H87        26.7739   -4.5359   -8.4842 H         1 UNK         0.0934 
     88 H88        26.4628   -2.2026   -8.5393 H         1 UNK         0.0739 
     89 H89        25.5179   -3.5687   -6.3314 H         1 UNK         0.3093 
     90 H90        22.8029   -1.9786   -6.2313 H         1 UNK         0.0818 
     91 H91        24.5510   -3.5302   -4.2456 H         1 UNK         0.0819 
     92 H92        22.7978   -3.5962   -4.3110 H         1 UNK         0.0819 
     93 H93        23.7318   -4.1950   -5.6621 H         1 UNK         0.0819 
     94 H94        24.2431   -0.9353   -3.8265 H         1 UNK         0.3041 
     95 H95        22.2936    1.7587   -3.4875 H         1 UNK         0.0784 
     96 H96        20.2070    0.5608   -2.8728 H         1 UNK         0.0793 
     97 H97        21.1165   -0.5939   -1.9087 H         1 UNK         0.0793 
     98 H98        21.0404    1.1019   -1.4275 H         1 UNK         0.0793 
     99 H99        23.4964   -0.0643   -1.5112 H         1 UNK         0.3024 
    100 H100       26.7488    1.2493   -1.9101 H         1 UNK         0.1171 
    101 H101       26.5482    1.7821    0.4889 H         1 UNK         0.0786 
    102 H102       25.6481    2.9544   -0.4562 H         1 UNK         0.0786 
    103 H103       24.7887    1.6824    0.4007 H         1 UNK         0.0786 
    104 H104       25.9155   -0.5526    0.0132 H         1 UNK         0.2977 
    105 H105       27.3714   -1.4632   -5.2661 H         1 UNK         0.3127 
    106 H106       29.9229   -0.2909   -5.7970 H         1 UNK         0.0770 
    107 H107       27.8676    0.4637   -3.6662 H         1 UNK         0.0814 
    108 H108       29.5938    0.7970   -3.6108 H         1 UNK         0.0814 
    109 H109       29.0156   -0.8603   -3.5017 H         1 UNK         0.0814 
    110 H110       26.6892    0.7927   -6.5851 H         1 UNK         0.2983 
    111 H111       27.5096    3.5897   -7.0661 H         1 UNK         0.0947 
    112 H112       25.2345    3.0628   -6.1620 H         1 UNK         0.0806 
    113 H113       24.8725    2.1202   -7.6066 H         1 UNK         0.0806 
    114 H114       25.1369    3.8543   -7.7277 H         1 UNK         0.0806 
    115 H115       27.7304    0.6138   -8.7574 H         1 UNK         0.3000 
    116 H116       27.5247    1.8972  -11.4577 H         1 UNK         0.0850 
    117 H117       27.1090   -0.4008  -12.2760 H         1 UNK         0.0810 
    118 H118       25.9237    0.0306  -11.0538 H         1 UNK         0.0810 
    119 H119       27.2589   -1.0472  -10.6485 H         1 UNK         0.0810 
    120 H120       29.5061   -0.2964   -9.4188 H         1 UNK         0.3040 
    121 H121       31.6054   -0.6907  -11.3337 H         1 UNK         0.0766 
    122 H122       31.0701   -2.2770   -9.4600 H         1 UNK         0.0812 
    123 H123       31.5249   -1.0509   -8.2809 H         1 UNK         0.0812 
    124 H124       32.7382   -1.7413   -9.3518 H         1 UNK         0.0812 
    125 H125       33.8479   -0.0444  -11.0318 H         1 UNK         0.3205 
    126 H126       34.2842    2.7294  -10.7978 H         1 UNK         0.0754 
    127 H127       35.7140    1.2277  -12.1615 H         1 UNK         0.0769 
    128 H128       36.2952    0.4127  -10.7080 H         1 UNK         0.0769 
    129 H129       36.6989    2.0987  -10.9996 H         1 UNK         0.0769 
    130 H130       34.3706    0.2548   -8.3106 H         1 UNK         0.2981 
    131 H131       35.6519    1.9303   -6.3105 H         1 UNK         0.0541 
    132 H132       32.4691    2.1193   -7.6341 H         1 UNK         0.3459 
    133 H133       31.7129    2.7932   -6.2191 H         1 UNK         0.3459 
    134 H134       35.1715    0.0914   -4.7388 H         1 UNK         0.0612 
    135 H135       36.0143   -0.4481   -6.1515 H         1 UNK         0.0612 
    136 H136       32.1601   -0.1972   -4.7915 H         1 UNK         0.0624 
    137 H137       33.3409   -1.0187   -3.7982 H         1 UNK         0.0624 
@<TRIPOS>BOND
     1    1    2 1    
     2    1   72 1    
     3    1   73 1    
     4    1   74 1    
     5    2    3 2    
     6    2    4 am   BACKBONE|DICT|INTERRES
     7    4    5 1    
     8    4   75 1    
     9    5    6 1    
    10    5   35 1    
    11    5   76 1    
    12    6    7 1    
    13    6   77 1    
    14    6   78 1    
    15    7    8 1    
    16    8    9 1    
    17    8   79 1    
    18    8   80 1    
    19    9   10 ar   
    20    9   14 ar   
    21   10   11 ar   
    22   10   81 1    
    23   11   12 ar   
    24   11   71 1    
    25   12   13 ar   
    26   12   82 1    
    27   13   14 ar   
    28   13   15 1    
    29   14   83 1    
    30   15   16 1    
    31   15   84 1    
    32   15   85 1    
    33   16   17 1    
    34   17   18 1    
    35   17   86 1    
    36   17   87 1    
    37   18   19 1    
    38   18   37 1    
    39   18   88 1    
    40   19   20 am   BACKBONE|DICT|INTERRES
    41   19   89 1    
    42   20   21 2    
    43   20   22 1    
    44   22   23 1    
    45   22   24 1    
    46   22   90 1    
    47   23   91 1    
    48   23   92 1    
    49   23   93 1    
    50   24   25 am   BACKBONE|DICT|INTERRES
    51   24   94 1    
    52   25   26 2    
    53   25   27 1    
    54   27   28 1    
    55   27   29 1    
    56   27   95 1    
    57   28   96 1    
    58   28   97 1    
    59   28   98 1    
    60   29   30 am   BACKBONE|DICT|INTERRES
    61   29   99 1    
    62   30   31 2    
    63   30   32 1    
    64   32   33 1    
    65   32   34 1    
    66   32  100 1    
    67   33  101 1    
    68   33  102 1    
    69   33  103 1    
    70   34   35 am   BACKBONE|DICT|INTERRES
    71   34  104 1    
    72   35   36 2    
    73   37   38 2    
    74   37   39 am   BACKBONE|DICT|INTERRES
    75   39   40 1    
    76   39  105 1    
    77   40   41 1    
    78   40   42 1    
    79   40  106 1    
    80   41  107 1    
    81   41  108 1    
    82   41  109 1    
    83   42   43 2    
    84   42   44 am   BACKBONE|DICT|INTERRES
    85   44   45 1    
    86   44  110 1    
    87   45   46 1    
    88   45   47 1    
    89   45  111 1    
    90   46  112 1    
    91   46  113 1    
    92   46  114 1    
    93   47   48 2    
    94   47   49 am   BACKBONE|DICT|INTERRES
    95   49   50 1    
    96   49  115 1    
    97   50   51 1    
    98   50   52 1    
    99   50  116 1    
   100   51  117 1    
   101   51  118 1    
   102   51  119 1    
   103   52   53 2    
   104   52   54 am   BACKBONE|DICT|INTERRES
   105   54   55 1    
   106   54  120 1    
   107   55   56 1    
   108   55   57 1    
   109   55  121 1    
   110   56  122 1    
   111   56  123 1    
   112   56  124 1    
   113   57   58 2    
   114   57   59 am   BACKBONE|DICT|INTERRES
   115   59   60 1    
   116   59  125 1    
   117   60   61 1    
   118   60   62 1    
   119   60  126 1    
   120   61  127 1    
   121   61  128 1    
   122   61  129 1    
   123   62   63 2    
   124   62   64 am   BACKBONE|DICT|INTERRES
   125   64   65 1    
   126   64  130 1    
   127   65   66 1    
   128   65   69 1    
   129   65  131 1    
   130   66   67 am   BACKBONE|DICT|INTERRES
   131   66   68 2    
   132   67  132 1    
   133   67  133 1    
   134   69   70 1    
   135   69  134 1    
   136   69  135 1    
   137   70   71 1    
   138   71  136 1    
   139   71  137 1    
@<TRIPOS>SUBSTRUCTURE
     1 UNK         1 GROUP             0       ****    0 ROOT    
