@<TRIPOS>MOLECULE
3R137
137   139    1
SMALL
USER_CHARGES


@<TRIPOS>ATOM
      1 CA         29.5065    1.0256    2.4199 C.3       0 UNK        -0.2020 
      2 C          28.9171    0.7029    1.0548 C.2       0 UNK         0.4855 
      3 O          28.3844    1.5938    0.3919 O.2       0 UNK        -0.5197 
      4 N          29.0166   -0.5612    0.6260 N.am      1 UNK        -0.4892 
      5 CA         28.4706   -1.0628   -0.6405 C.3       1 UNK         0.0835 
      6 C6         29.0415   -2.4566   -1.0016 C.3       12 UNK        -0.0855 
      7 S7         30.8493   -2.4122   -1.2299 S.3       12 UNK        -0.2931 
      8 C8         31.1806   -4.1141   -1.7819 C.3       12 UNK         0.0378 
      9 C9         31.0074   -4.2766   -3.2860 C.ar      12 UNK        -0.0802 
     10 C10        31.9859   -3.7830   -4.1529 C.ar      12 UNK        -0.0944 
     11 C11        31.8791   -3.9739   -5.5332 C.ar      12 UNK        -0.0787 
     12 C12        30.7757   -4.6642   -6.0484 C.ar      12 UNK        -0.0862 
     13 C13        29.7963   -5.1780   -5.1904 C.ar      12 UNK        -0.0733 
     14 C14        29.9108   -4.9682   -3.8111 C.ar      12 UNK        -0.0832 
     15 C15        28.6605   -6.0364   -5.7335 C.3       12 UNK         0.0240 
     16 S16        27.1373   -5.0871   -6.0330 S.3       12 UNK        -0.2522 
     17 C17        27.2859   -4.6615   -7.8091 C.3       12 UNK        -0.0967 
     18 CA         26.8530   -3.2115   -8.1507 C.3       5 UNK         0.0660 
     19 N          25.5203   -2.8941   -7.6219 N.am      5 UNK        -0.4015 
     20 C          24.8819   -1.7175   -7.6828 C.2       4 UNK         0.4946 
     21 O          25.3666   -0.6944   -8.1671 O.2       4 UNK        -0.5353 
     22 CA         23.4714   -1.6466   -7.0832 C.3       4 UNK         0.0277 
     23 CB         22.9519   -2.9720   -6.4819 C.3       4 UNK        -0.1981 
     24 N          23.4897   -0.6106   -6.0609 N.am      4 UNK        -0.4209 
     25 C          22.4635    0.1417   -5.6601 C.2       3 UNK         0.4942 
     26 O          21.3276    0.0618   -6.1318 O.2       3 UNK        -0.5208 
     27 CA         22.7678    1.1235   -4.5081 C.3       3 UNK         0.0250 
     28 CB         21.5351    1.9446   -4.0854 C.3       3 UNK        -0.1990 
     29 N          23.3083    0.4332   -3.3306 N.am      3 UNK        -0.4232 
     30 C          24.5519   -0.0504   -3.2120 C.2       2 UNK         0.4993 
     31 O          25.4215    0.0601   -4.0845 O.2       2 UNK        -0.5286 
     32 CA         24.8537   -0.8524   -1.9437 C.3       2 UNK         0.0209 
     33 CB         24.3288   -2.2951   -2.0803 C.3       2 UNK        -0.1931 
     34 N          26.2986   -0.8643   -1.7492 N.am      2 UNK        -0.4546 
     35 C          26.9297   -1.1101   -0.5978 C.2       1 UNK         0.5154 
     36 O          26.3493   -1.3955    0.4537 O.2       1 UNK        -0.5181 
     37 C          27.9440   -2.1945   -7.7672 C.2       5 UNK         0.5014 
     38 O          28.6260   -1.6804   -8.6541 O.2       5 UNK        -0.5248 
     39 N          28.0645   -1.9067   -6.4647 N.am      6 UNK        -0.4434 
     40 CA         29.0670   -0.9965   -5.9135 C.3       6 UNK         0.0363 
     41 CB         29.0566   -1.0781   -4.3836 C.3       6 UNK        -0.1936 
     42 C          28.8949    0.4539   -6.3821 C.2       6 UNK         0.5081 
     43 O          29.8930    1.1207   -6.6498 O.2       6 UNK        -0.5248 
     44 N          27.6409    0.9082   -6.4955 N.am      7 UNK        -0.4718 
     45 CA         27.2934    2.2251   -7.0268 C.3       7 UNK         0.0273 
     46 CB         25.8397    2.5626   -6.6607 C.3       7 UNK        -0.1935 
     47 C          27.5178    2.3112   -8.5445 C.2       7 UNK         0.5018 
     48 O          28.0857    3.2978   -9.0127 O.2       7 UNK        -0.5186 
     49 N          27.0879    1.2745   -9.2783 N.am      8 UNK        -0.4240 
     50 CA         27.2026    1.1713  -10.7347 C.3       8 UNK         0.0235 
     51 CB         26.3948   -0.0387  -11.2318 C.3       8 UNK        -0.2000 
     52 C          28.6566    1.0924  -11.2256 C.2       8 UNK         0.4941 
     53 O          29.0137    1.8013  -12.1673 O.2       8 UNK        -0.5273 
     54 N          29.4689    0.2447  -10.5801 N.am      9 UNK        -0.4262 
     55 CA         30.8868    0.0589  -10.9018 C.3       9 UNK         0.0264 
     56 CB         31.3036   -1.3687  -10.5148 C.3       9 UNK        -0.1955 
     57 C          31.8095    1.1036  -10.2450 C.2       9 UNK         0.5031 
     58 O          32.9900    1.1462  -10.5954 O.2       9 UNK        -0.5390 
     59 N          31.2706    1.9179   -9.3232 N.am      10 UNK        -0.4204 
     60 CA         31.9509    2.9502   -8.5305 C.3       10 UNK         0.0237 
     61 CB         32.4400    4.1068   -9.4285 C.3       10 UNK        -0.1985 
     62 C          33.0588    2.3574   -7.6381 C.2       10 UNK         0.4970 
     63 O          34.2070    2.8039   -7.6857 O.2       10 UNK        -0.4914 
     64 N          32.6828    1.3454   -6.8488 N.am      11 UNK        -0.4285 
     65 CA         33.5666    0.6126   -5.9281 C.3       11 UNK         0.1007 
     66 C          33.9259    1.3909   -4.6294 C.2       11 UNK         0.5703 
     67 N          33.2520    2.4869   -4.2996 N.am      11 UNK        -0.7361 
     68 O          34.8426    0.9966   -3.9124 O.2       11 UNK        -0.4986 
     69 C69        33.0061   -0.7941   -5.5899 C.3       12 UNK        -0.0947 
     70 S70        32.7179   -1.8112   -7.0768 S.3       12 UNK        -0.2240 
     71 C71        32.9940   -3.4971   -6.4556 C.3       12 UNK         0.0194 
     72 H72        29.9671    0.1527    2.8824 H         1 UNK         0.0906 
     73 H73        30.2672    1.8004    2.3267 H         1 UNK         0.0906 
     74 H74        28.7269    1.3916    3.0877 H         1 UNK         0.0906 
     75 H75        29.4588   -1.2547    1.2121 H         1 UNK         0.3140 
     76 H76        28.7630   -0.3585   -1.4227 H         1 UNK         0.1085 
     77 H77        28.5885   -2.8358   -1.9194 H         1 UNK         0.0836 
     78 H78        28.8036   -3.1835   -0.2222 H         1 UNK         0.0836 
     79 H79        32.2066   -4.3713   -1.5145 H         1 UNK         0.0731 
     80 H80        30.5445   -4.8121   -1.2353 H         1 UNK         0.0731 
     81 H81        32.8440   -3.2659   -3.7462 H         1 UNK         0.1312 
     82 H82        30.7004   -4.8332   -7.1137 H         1 UNK         0.1406 
     83 H83        29.1617   -5.3740   -3.1447 H         1 UNK         0.1631 
     84 H84        28.4328   -6.8251   -5.0148 H         1 UNK         0.0717 
     85 H85        28.9687   -6.5525   -6.6440 H         1 UNK         0.0717 
     86 H86        26.6615   -5.3632   -8.3644 H         1 UNK         0.0934 
     87 H87        28.3038   -4.8475   -8.1580 H         1 UNK         0.0934 
     88 H88        26.7594   -3.1522   -9.2371 H         1 UNK         0.0739 
     89 H89        25.0451   -3.6628   -7.1723 H         1 UNK         0.3093 
     90 H90        22.8030   -1.3405   -7.8906 H         1 UNK         0.0818 
     91 H91        21.9351   -2.8557   -6.1062 H         1 UNK         0.0819 
     92 H92        22.9189   -3.7646   -7.2307 H         1 UNK         0.0819 
     93 H93        23.5679   -3.3143   -5.6491 H         1 UNK         0.0819 
     94 H94        24.3848   -0.4487   -5.6059 H         1 UNK         0.3041 
     95 H95        23.5194    1.8247   -4.8745 H         1 UNK         0.0784 
     96 H96        21.1317    2.5064   -4.9291 H         1 UNK         0.0793 
     97 H97        20.7355    1.3077   -3.7050 H         1 UNK         0.0793 
     98 H98        21.7870    2.6678   -3.3095 H         1 UNK         0.0793 
     99 H99        22.6501    0.2552   -2.5852 H         1 UNK         0.3024 
    100 H100       24.3791   -0.3583   -1.0925 H         1 UNK         0.1171 
    101 H101       24.5219   -2.8773   -1.1792 H         1 UNK         0.0786 
    102 H102       24.7949   -2.8143   -2.9191 H         1 UNK         0.0786 
    103 H103       23.2508   -2.3095   -2.2460 H         1 UNK         0.0786 
    104 H104       26.8154   -0.5885   -2.5747 H         1 UNK         0.2977 
    105 H105       27.4714   -2.3965   -5.8105 H         1 UNK         0.3127 
    106 H106       30.0388   -1.3415   -6.2645 H         1 UNK         0.0770 
    107 H107       28.0887   -0.7914   -3.9762 H         1 UNK         0.0814 
    108 H108       29.8084   -0.4180   -3.9489 H         1 UNK         0.0814 
    109 H109       29.2845   -2.0890   -4.0502 H         1 UNK         0.0814 
    110 H110       26.8773    0.2896   -6.2605 H         1 UNK         0.2983 
    111 H111       27.9420    2.9661   -6.5537 H         1 UNK         0.0947 
    112 H112       25.5602    3.5467   -7.0391 H         1 UNK         0.0806 
    113 H113       25.7044    2.5806   -5.5793 H         1 UNK         0.0806 
    114 H114       25.1367    1.8402   -7.0769 H         1 UNK         0.0806 
    115 H115       26.5985    0.5151   -8.8062 H         1 UNK         0.3000 
    116 H116       26.7596    2.0728  -11.1632 H         1 UNK         0.0850 
    117 H117       26.4546   -0.1314  -12.3170 H         1 UNK         0.0810 
    118 H118       25.3404    0.0564  -10.9715 H         1 UNK         0.0810 
    119 H119       26.7602   -0.9719  -10.8015 H         1 UNK         0.0810 
    120 H120       29.0916   -0.3396   -9.8338 H         1 UNK         0.3040 
    121 H121       31.0187    0.1576  -11.9815 H         1 UNK         0.0766 
    122 H122       31.1479   -1.5544   -9.4533 H         1 UNK         0.0812 
    123 H123       30.7301   -2.1121  -11.0683 H         1 UNK         0.0812 
    124 H124       32.3586   -1.5463  -10.7274 H         1 UNK         0.0812 
    125 H125       30.2967    1.7733   -9.0927 H         1 UNK         0.3205 
    126 H126       31.1978    3.3587   -7.8546 H         1 UNK         0.0754 
    127 H127       32.8493    4.9197   -8.8275 H         1 UNK         0.0769 
    128 H128       31.6225    4.5203  -10.0194 H         1 UNK         0.0769 
    129 H129       33.2227    3.7866  -10.1168 H         1 UNK         0.0769 
    130 H130       31.6986    1.0849   -6.8344 H         1 UNK         0.2981 
    131 H131       34.5140    0.4614   -6.4490 H         1 UNK         0.0541 
    132 H132       33.4990    2.9848   -3.4591 H         1 UNK         0.3459 
    133 H133       32.4959    2.8138   -4.8788 H         1 UNK         0.3459 
    134 H134       32.0698   -0.7139   -5.0361 H         1 UNK         0.0612 
    135 H135       33.7035   -1.3260   -4.9408 H         1 UNK         0.0612 
    136 H136       33.0737   -4.1697   -7.3108 H         1 UNK         0.0624 
    137 H137       33.9577   -3.5447   -5.9462 H         1 UNK         0.0624 
@<TRIPOS>BOND
     1    1    2 1    
     2    1   72 1    
     3    1   73 1    
     4    1   74 1    
     5    2    3 2    
     6    2    4 am   BACKBONE|DICT|INTERRES
     7    4    5 1    
     8    4   75 1    
     9    5    6 1    
    10    5   35 1    
    11    5   76 1    
    12    6    7 1    
    13    6   77 1    
    14    6   78 1    
    15    7    8 1    
    16    8    9 1    
    17    8   79 1    
    18    8   80 1    
    19    9   10 ar   
    20    9   14 ar   
    21   10   11 ar   
    22   10   81 1    
    23   11   12 ar   
    24   11   71 1    
    25   12   13 ar   
    26   12   82 1    
    27   13   14 ar   
    28   13   15 1    
    29   14   83 1    
    30   15   16 1    
    31   15   84 1    
    32   15   85 1    
    33   16   17 1    
    34   17   18 1    
    35   17   86 1    
    36   17   87 1    
    37   18   19 1    
    38   18   37 1    
    39   18   88 1    
    40   19   20 am   BACKBONE|DICT|INTERRES
    41   19   89 1    
    42   20   21 2    
    43   20   22 1    
    44   22   23 1    
    45   22   24 1    
    46   22   90 1    
    47   23   91 1    
    48   23   92 1    
    49   23   93 1    
    50   24   25 am   BACKBONE|DICT|INTERRES
    51   24   94 1    
    52   25   26 2    
    53   25   27 1    
    54   27   28 1    
    55   27   29 1    
    56   27   95 1    
    57   28   96 1    
    58   28   97 1    
    59   28   98 1    
    60   29   30 am   BACKBONE|DICT|INTERRES
    61   29   99 1    
    62   30   31 2    
    63   30   32 1    
    64   32   33 1    
    65   32   34 1    
    66   32  100 1    
    67   33  101 1    
    68   33  102 1    
    69   33  103 1    
    70   34   35 am   BACKBONE|DICT|INTERRES
    71   34  104 1    
    72   35   36 2    
    73   37   38 2    
    74   37   39 am   BACKBONE|DICT|INTERRES
    75   39   40 1    
    76   39  105 1    
    77   40   41 1    
    78   40   42 1    
    79   40  106 1    
    80   41  107 1    
    81   41  108 1    
    82   41  109 1    
    83   42   43 2    
    84   42   44 am   BACKBONE|DICT|INTERRES
    85   44   45 1    
    86   44  110 1    
    87   45   46 1    
    88   45   47 1    
    89   45  111 1    
    90   46  112 1    
    91   46  113 1    
    92   46  114 1    
    93   47   48 2    
    94   47   49 am   BACKBONE|DICT|INTERRES
    95   49   50 1    
    96   49  115 1    
    97   50   51 1    
    98   50   52 1    
    99   50  116 1    
   100   51  117 1    
   101   51  118 1    
   102   51  119 1    
   103   52   53 2    
   104   52   54 am   BACKBONE|DICT|INTERRES
   105   54   55 1    
   106   54  120 1    
   107   55   56 1    
   108   55   57 1    
   109   55  121 1    
   110   56  122 1    
   111   56  123 1    
   112   56  124 1    
   113   57   58 2    
   114   57   59 am   BACKBONE|DICT|INTERRES
   115   59   60 1    
   116   59  125 1    
   117   60   61 1    
   118   60   62 1    
   119   60  126 1    
   120   61  127 1    
   121   61  128 1    
   122   61  129 1    
   123   62   63 2    
   124   62   64 am   BACKBONE|DICT|INTERRES
   125   64   65 1    
   126   64  130 1    
   127   65   66 1    
   128   65   69 1    
   129   65  131 1    
   130   66   67 am   BACKBONE|DICT|INTERRES
   131   66   68 2    
   132   67  132 1    
   133   67  133 1    
   134   69   70 1    
   135   69  134 1    
   136   69  135 1    
   137   70   71 1    
   138   71  136 1    
   139   71  137 1    
@<TRIPOS>SUBSTRUCTURE
     1 UNK         1 GROUP             0       ****    0 ROOT    
