@<TRIPOS>MOLECULE
3R137
137   139    1
SMALL
USER_CHARGES


@<TRIPOS>ATOM
      1 CA         27.0964   -5.9306    2.3637 C.3       0 UNK        -0.2020 
      2 C          26.5513   -4.5151    2.2488 C.2       0 UNK         0.4855 
      3 O          25.4200   -4.2587    2.6615 O.2       0 UNK        -0.5197 
      4 N          27.3481   -3.5933    1.6930 N.am      1 UNK        -0.4892 
      5 CA         26.9883   -2.1868    1.4672 C.3       1 UNK         0.0835 
      6 C6         28.2362   -1.3025    1.2025 C.3       12 UNK        -0.0855 
      7 S7         29.3979   -1.9880   -0.0324 S.3       12 UNK        -0.2931 
      8 C8         28.9515   -1.0218   -1.5059 C.3       12 UNK         0.0378 
      9 C9         29.6557   -1.5424   -2.7495 C.ar      12 UNK        -0.0802 
     10 C10        30.5936   -0.7516   -3.4198 C.ar      12 UNK        -0.0944 
     11 C11        31.2080   -1.2105   -4.5903 C.ar      12 UNK        -0.0787 
     12 C12        30.8974   -2.4896   -5.0669 C.ar      12 UNK        -0.0862 
     13 C13        29.9600   -3.2883   -4.4077 C.ar      12 UNK        -0.0733 
     14 C14        29.3408   -2.8078   -3.2508 C.ar      12 UNK        -0.0832 
     15 C15        29.6164   -4.6689   -4.9491 C.3       12 UNK         0.0240 
     16 S16        28.6033   -4.5875   -6.4619 S.3       12 UNK        -0.2522 
     17 C17        27.0695   -3.8180   -5.8424 C.3       12 UNK        -0.0967 
     18 CA         26.5436   -2.6765   -6.7447 C.3       5 UNK         0.0660 
     19 N          25.1959   -2.2729   -6.3483 N.am      5 UNK        -0.4015 
     20 C          24.2763   -1.7616   -7.1780 C.2       4 UNK         0.4946 
     21 O          24.4234   -1.6763   -8.3973 O.2       4 UNK        -0.5353 
     22 CA         22.9679   -1.2494   -6.5462 C.3       4 UNK         0.0277 
     23 CB         21.8752   -2.3277   -6.6260 C.3       4 UNK        -0.1981 
     24 N          23.1206   -0.8175   -5.1534 N.am      4 UNK        -0.4209 
     25 C          23.8379    0.2454   -4.7615 C.2       3 UNK         0.4942 
     26 O          24.4098    1.0069   -5.5396 O.2       3 UNK        -0.5208 
     27 CA         23.9873    0.4637   -3.2456 C.3       3 UNK         0.0250 
     28 CB         22.8398    1.3353   -2.7120 C.3       3 UNK        -0.1990 
     29 N          24.0636   -0.7789   -2.4678 N.am      3 UNK        -0.4232 
     30 C          24.9937   -1.7310   -2.6248 C.2       2 UNK         0.4993 
     31 O          25.8841   -1.6818   -3.4770 O.2       2 UNK        -0.5286 
     32 CA         24.8949   -2.9553   -1.6977 C.3       2 UNK         0.0209 
     33 CB         25.0835   -4.2640   -2.4853 C.3       2 UNK        -0.1931 
     34 N          25.8702   -2.9135   -0.6061 N.am      2 UNK        -0.4546 
     35 C          25.9055   -2.0045    0.3800 C.2       1 UNK         0.5154 
     36 O          25.1110   -1.0678    0.4743 O.2       1 UNK        -0.5181 
     37 C          27.4630   -1.4382   -6.7772 C.2       5 UNK         0.5014 
     38 O          28.1641   -1.2392   -7.7697 O.2       5 UNK        -0.5248 
     39 N          27.3868   -0.5885   -5.7379 N.am      6 UNK        -0.4434 
     40 CA         28.1252    0.6782   -5.6253 C.3       6 UNK         0.0363 
     41 CB         27.7761    1.3670   -4.2975 C.3       6 UNK        -0.1936 
     42 C          27.8866    1.6479   -6.7954 C.2       6 UNK         0.5081 
     43 O          28.8175    2.3372   -7.2143 O.2       6 UNK        -0.5248 
     44 N          26.6590    1.6429   -7.3342 N.am      7 UNK        -0.4718 
     45 CA         26.2236    2.3934   -8.5158 C.3       7 UNK         0.0273 
     46 CB         24.7260    2.1325   -8.7464 C.3       7 UNK        -0.1935 
     47 C          27.0218    2.1132   -9.8055 C.2       7 UNK         0.5018 
     48 O          26.9363    2.9176  -10.7346 O.2       7 UNK        -0.5186 
     49 N          27.7927    1.0141   -9.8516 N.am      8 UNK        -0.4240 
     50 CA         28.7382    0.7182  -10.9311 C.3       8 UNK         0.0235 
     51 CB         29.2590   -0.7202  -10.7829 C.3       8 UNK        -0.2000 
     52 C          29.9212    1.7019  -10.9912 C.2       8 UNK         0.4941 
     53 O          30.4842    1.8791  -12.0724 O.2       8 UNK        -0.5273 
     54 N          30.2884    2.3066   -9.8476 N.am      9 UNK        -0.4262 
     55 CA         31.3465    3.3061   -9.6201 C.3       9 UNK         0.0264 
     56 CB         31.0543    4.6090  -10.3882 C.3       9 UNK        -0.1955 
     57 C          32.7859    2.8224   -9.8853 C.2       9 UNK         0.5031 
     58 O          33.6710    3.0859   -9.0695 O.2       9 UNK        -0.5390 
     59 N          32.9972    2.0988  -10.9921 N.am      10 UNK        -0.4204 
     60 CA         34.2657    1.5000  -11.4251 C.3       10 UNK         0.0237 
     61 CB         34.0735    0.8864  -12.8216 C.3       10 UNK        -0.1985 
     62 C          34.8392    0.4534  -10.4504 C.2       10 UNK         0.4970 
     63 O          36.0276    0.1411  -10.5335 O.2       10 UNK        -0.4914 
     64 N          33.9971   -0.0502   -9.5405 N.am      11 UNK        -0.4285 
     65 CA         34.3732   -0.8707   -8.3845 C.3       11 UNK         0.1007 
     66 C          35.2842   -0.1543   -7.3412 C.2       11 UNK         0.5703 
     67 N          35.3628    1.1728   -7.3221 N.am      11 UNK        -0.7361 
     68 O          35.9350   -0.8200   -6.5396 O.2       11 UNK        -0.4986 
     69 C69        33.1156   -1.4920   -7.7210 C.3       12 UNK        -0.0947 
     70 S70        31.9151   -0.2432   -7.1271 S.3       12 UNK        -0.2240 
     71 C71        32.1965   -0.3085   -5.3243 C.3       12 UNK         0.0194 
     72 H72        26.4590   -6.6236    1.8151 H         1 UNK         0.0906 
     73 H73        27.1174   -6.2409    3.4081 H         1 UNK         0.0906 
     74 H74        28.1077   -6.0124    1.9656 H         1 UNK         0.0906 
     75 H75        28.2732   -3.8510    1.3751 H         1 UNK         0.3140 
     76 H76        26.5336   -1.8243    2.3924 H         1 UNK         0.1085 
     77 H77        28.7932   -1.1960    2.1348 H         1 UNK         0.0836 
     78 H78        27.9491   -0.2854    0.9266 H         1 UNK         0.0836 
     79 H79        27.8746   -1.0686   -1.6658 H         1 UNK         0.0731 
     80 H80        29.1940    0.0276   -1.3313 H         1 UNK         0.0731 
     81 H81        30.8299    0.2332   -3.0406 H         1 UNK         0.1312 
     82 H82        31.3622   -2.8612   -5.9684 H         1 UNK         0.1406 
     83 H83        28.6081   -3.4142   -2.7363 H         1 UNK         0.1631 
     84 H84        29.0918   -5.2619   -4.1982 H         1 UNK         0.0717 
     85 H85        30.5388   -5.2070   -5.1721 H         1 UNK         0.0717 
     86 H86        26.3204   -4.6089   -5.7782 H         1 UNK         0.0934 
     87 H87        27.2079   -3.4638   -4.8229 H         1 UNK         0.0934 
     88 H88        26.4939   -3.0676   -7.7637 H         1 UNK         0.0739 
     89 H89        25.0193   -2.2490   -5.3524 H         1 UNK         0.3093 
     90 H90        22.6416   -0.3859   -7.1304 H         1 UNK         0.0818 
     91 H91        21.7203   -2.6496   -7.6570 H         1 UNK         0.0819 
     92 H92        22.1357   -3.2130   -6.0445 H         1 UNK         0.0819 
     93 H93        20.9193   -1.9528   -6.2598 H         1 UNK         0.0819 
     94 H94        22.6727   -1.3813   -4.4456 H         1 UNK         0.3041 
     95 H95        24.9227    1.0011   -3.0831 H         1 UNK         0.0784 
     96 H96        22.7784    2.2769   -3.2599 H         1 UNK         0.0793 
     97 H97        21.8738    0.8381   -2.8087 H         1 UNK         0.0793 
     98 H98        22.9866    1.5843   -1.6607 H         1 UNK         0.0793 
     99 H99        23.3964   -0.8779   -1.7154 H         1 UNK         0.3024 
    100 H100       23.8966   -2.9741   -1.2547 H         1 UNK         0.1171 
    101 H101       26.0972   -4.3610   -2.8747 H         1 UNK         0.0786 
    102 H102       24.8838   -5.1338   -1.8591 H         1 UNK         0.0786 
    103 H103       24.4004   -4.3149   -3.3343 H         1 UNK         0.0786 
    104 H104       26.5705   -3.6399   -0.5940 H         1 UNK         0.2977 
    105 H105       26.8114   -0.8518   -4.9421 H         1 UNK         0.3127 
    106 H106       29.1863    0.4287   -5.6223 H         1 UNK         0.0770 
    107 H107       28.4561    2.1973   -4.1038 H         1 UNK         0.0814 
    108 H108       26.7653    1.7739   -4.3104 H         1 UNK         0.0814 
    109 H109       27.8482    0.6817   -3.4557 H         1 UNK         0.0814 
    110 H110       25.9417    1.1053   -6.8568 H         1 UNK         0.2983 
    111 H111       26.3564    3.4531   -8.2889 H         1 UNK         0.0947 
    112 H112       24.5276    1.0772   -8.9369 H         1 UNK         0.0806 
    113 H113       24.3558    2.6949   -9.6047 H         1 UNK         0.0806 
    114 H114       24.1321    2.4352   -7.8838 H         1 UNK         0.0806 
    115 H115       27.8062    0.3884   -9.0517 H         1 UNK         0.3000 
    116 H116       28.1995    0.7921  -11.8782 H         1 UNK         0.0850 
    117 H117       29.9099   -0.9880  -11.6164 H         1 UNK         0.0810 
    118 H118       28.4407   -1.4403  -10.7651 H         1 UNK         0.0810 
    119 H119       29.8360   -0.8475   -9.8656 H         1 UNK         0.0810 
    120 H120       29.7536    2.0810   -9.0127 H         1 UNK         0.3040 
    121 H121       31.2930    3.5379   -8.5549 H         1 UNK         0.0766 
    122 H122       31.0857    4.4632  -11.4684 H         1 UNK         0.0812 
    123 H123       31.7881    5.3780  -10.1434 H         1 UNK         0.0812 
    124 H124       30.0715    5.0054  -10.1327 H         1 UNK         0.0812 
    125 H125       32.1844    1.9466  -11.5903 H         1 UNK         0.3205 
    126 H126       34.9995    2.3050  -11.4987 H         1 UNK         0.0754 
    127 H127       35.0046    0.4560  -13.1934 H         1 UNK         0.0769 
    128 H128       33.7546    1.6377  -13.5444 H         1 UNK         0.0769 
    129 H129       33.3261    0.0918  -12.8123 H         1 UNK         0.0769 
    130 H130       33.0430    0.2762   -9.5439 H         1 UNK         0.2981 
    131 H131       34.9692   -1.6974   -8.7753 H         1 UNK         0.0541 
    132 H132       35.9593    1.6205   -6.6453 H         1 UNK         0.3459 
    133 H133       34.8115    1.7364   -7.9593 H         1 UNK         0.3459 
    134 H134       33.4043   -2.1582   -6.9064 H         1 UNK         0.0612 
    135 H135       32.5986   -2.1255   -8.4433 H         1 UNK         0.0612 
    136 H136       32.1190    0.7129   -4.9490 H         1 UNK         0.0624 
    137 H137       33.2142   -0.6337   -5.1066 H         1 UNK         0.0624 
@<TRIPOS>BOND
     1    1    2 1    
     2    1   72 1    
     3    1   73 1    
     4    1   74 1    
     5    2    3 2    
     6    2    4 am   BACKBONE|DICT|INTERRES
     7    4    5 1    
     8    4   75 1    
     9    5    6 1    
    10    5   35 1    
    11    5   76 1    
    12    6    7 1    
    13    6   77 1    
    14    6   78 1    
    15    7    8 1    
    16    8    9 1    
    17    8   79 1    
    18    8   80 1    
    19    9   10 ar   
    20    9   14 ar   
    21   10   11 ar   
    22   10   81 1    
    23   11   12 ar   
    24   11   71 1    
    25   12   13 ar   
    26   12   82 1    
    27   13   14 ar   
    28   13   15 1    
    29   14   83 1    
    30   15   16 1    
    31   15   84 1    
    32   15   85 1    
    33   16   17 1    
    34   17   18 1    
    35   17   86 1    
    36   17   87 1    
    37   18   19 1    
    38   18   37 1    
    39   18   88 1    
    40   19   20 am   BACKBONE|DICT|INTERRES
    41   19   89 1    
    42   20   21 2    
    43   20   22 1    
    44   22   23 1    
    45   22   24 1    
    46   22   90 1    
    47   23   91 1    
    48   23   92 1    
    49   23   93 1    
    50   24   25 am   BACKBONE|DICT|INTERRES
    51   24   94 1    
    52   25   26 2    
    53   25   27 1    
    54   27   28 1    
    55   27   29 1    
    56   27   95 1    
    57   28   96 1    
    58   28   97 1    
    59   28   98 1    
    60   29   30 am   BACKBONE|DICT|INTERRES
    61   29   99 1    
    62   30   31 2    
    63   30   32 1    
    64   32   33 1    
    65   32   34 1    
    66   32  100 1    
    67   33  101 1    
    68   33  102 1    
    69   33  103 1    
    70   34   35 am   BACKBONE|DICT|INTERRES
    71   34  104 1    
    72   35   36 2    
    73   37   38 2    
    74   37   39 am   BACKBONE|DICT|INTERRES
    75   39   40 1    
    76   39  105 1    
    77   40   41 1    
    78   40   42 1    
    79   40  106 1    
    80   41  107 1    
    81   41  108 1    
    82   41  109 1    
    83   42   43 2    
    84   42   44 am   BACKBONE|DICT|INTERRES
    85   44   45 1    
    86   44  110 1    
    87   45   46 1    
    88   45   47 1    
    89   45  111 1    
    90   46  112 1    
    91   46  113 1    
    92   46  114 1    
    93   47   48 2    
    94   47   49 am   BACKBONE|DICT|INTERRES
    95   49   50 1    
    96   49  115 1    
    97   50   51 1    
    98   50   52 1    
    99   50  116 1    
   100   51  117 1    
   101   51  118 1    
   102   51  119 1    
   103   52   53 2    
   104   52   54 am   BACKBONE|DICT|INTERRES
   105   54   55 1    
   106   54  120 1    
   107   55   56 1    
   108   55   57 1    
   109   55  121 1    
   110   56  122 1    
   111   56  123 1    
   112   56  124 1    
   113   57   58 2    
   114   57   59 am   BACKBONE|DICT|INTERRES
   115   59   60 1    
   116   59  125 1    
   117   60   61 1    
   118   60   62 1    
   119   60  126 1    
   120   61  127 1    
   121   61  128 1    
   122   61  129 1    
   123   62   63 2    
   124   62   64 am   BACKBONE|DICT|INTERRES
   125   64   65 1    
   126   64  130 1    
   127   65   66 1    
   128   65   69 1    
   129   65  131 1    
   130   66   67 am   BACKBONE|DICT|INTERRES
   131   66   68 2    
   132   67  132 1    
   133   67  133 1    
   134   69   70 1    
   135   69  134 1    
   136   69  135 1    
   137   70   71 1    
   138   71  136 1    
   139   71  137 1    
@<TRIPOS>SUBSTRUCTURE
     1 UNK         1 GROUP             0       ****    0 ROOT    
