@<TRIPOS>MOLECULE
3R137
137   139    1
SMALL
USER_CHARGES


@<TRIPOS>ATOM
      1 CA         27.8249   -6.7536    0.7786 C.3       0 UNK        -0.2020 
      2 C          26.9014   -5.6742    0.2346 C.2       0 UNK         0.4855 
      3 O          25.7103   -5.6719    0.5457 O.2       0 UNK        -0.5197 
      4 N          27.4398   -4.7570   -0.5795 N.am      1 UNK        -0.4892 
      5 CA         26.6989   -3.6548   -1.2084 C.3       1 UNK         0.0835 
      6 C6         27.6406   -2.4935   -1.6167 C.3       12 UNK        -0.0855 
      7 S7         28.9681   -2.9904   -2.7776 S.3       12 UNK        -0.2931 
      8 C8         30.4724   -2.6683   -1.7957 C.3       12 UNK         0.0378 
      9 C9         31.0352   -1.2705   -2.0307 C.ar      12 UNK        -0.0802 
     10 C10        32.3591   -1.1125   -2.4499 C.ar      12 UNK        -0.0944 
     11 C11        32.8862    0.1606   -2.6864 C.ar      12 UNK        -0.0787 
     12 C12        32.0790    1.2871   -2.4930 C.ar      12 UNK        -0.0862 
     13 C13        30.7605    1.1478   -2.0474 C.ar      12 UNK        -0.0733 
     14 C14        30.2520   -0.1334   -1.8110 C.ar      12 UNK        -0.0832 
     15 C15        29.9079    2.3789   -1.7570 C.3       12 UNK         0.0240 
     16 S16        28.2304    2.2756   -2.4689 S.3       12 UNK        -0.2522 
     17 C17        28.4715    2.9113   -4.1632 C.3       12 UNK        -0.0967 
     18 CA         28.7279    1.8104   -5.2378 C.3       5 UNK         0.0660 
     19 N          27.7808    0.6884   -5.1789 N.am      5 UNK        -0.4015 
     20 C          26.4464    0.7532   -5.2883 C.2       4 UNK         0.4946 
     21 O          25.8266    1.7882   -5.5449 O.2       4 UNK        -0.5353 
     22 CA         25.6673   -0.5440   -4.9794 C.3       4 UNK         0.0277 
     23 CB         24.2299   -0.5581   -5.5427 C.3       4 UNK        -0.1981 
     24 N          26.3645   -1.7913   -5.3149 N.am      4 UNK        -0.4209 
     25 C          26.7670   -2.2093   -6.5252 C.2       3 UNK         0.4942 
     26 O          26.6775   -1.5389   -7.5524 O.2       3 UNK        -0.5208 
     27 CA         27.3416   -3.6364   -6.6149 C.3       3 UNK         0.0250 
     28 CB         28.8751   -3.6100   -6.6808 C.3       3 UNK        -0.1990 
     29 N          26.9207   -4.4940   -5.5033 N.am      3 UNK        -0.4232 
     30 C          25.7179   -5.0818   -5.4156 C.2       2 UNK         0.4993 
     31 O          24.8594   -5.0228   -6.2962 O.2       2 UNK        -0.5286 
     32 CA         25.4119   -5.8550   -4.1201 C.3       2 UNK         0.0209 
     33 CB         25.7856   -7.3383   -4.2735 C.3       2 UNK        -0.1931 
     34 N          26.0892   -5.3038   -2.9422 N.am      2 UNK        -0.4546 
     35 C          25.8259   -4.1056   -2.3989 C.2       1 UNK         0.5154 
     36 O          24.9575   -3.3445   -2.8263 O.2       1 UNK        -0.5181 
     37 C          28.8559    2.4065   -6.6612 C.2       5 UNK         0.5014 
     38 O          28.3157    1.8669   -7.6311 O.2       5 UNK        -0.5248 
     39 N          29.5996    3.5188   -6.7762 N.am      6 UNK        -0.4434 
     40 CA         29.9033    4.2370   -8.0237 C.3       6 UNK         0.0363 
     41 CB         30.8861    5.3780   -7.7148 C.3       6 UNK        -0.1936 
     42 C          28.6774    4.7750   -8.7868 C.2       6 UNK         0.5081 
     43 O          28.7915    5.0664   -9.9772 O.2       6 UNK        -0.5248 
     44 N          27.5283    4.8782   -8.1067 N.am      7 UNK        -0.4718 
     45 CA         26.2274    5.1865   -8.7033 C.3       7 UNK         0.0273 
     46 CB         25.2471    5.5628   -7.5798 C.3       7 UNK        -0.1935 
     47 C          25.6527    4.0332   -9.5516 C.2       7 UNK         0.5018 
     48 O          24.7413    4.2796  -10.3432 O.2       7 UNK        -0.5186 
     49 N          26.1691    2.8108   -9.3682 N.am      8 UNK        -0.4240 
     50 CA         25.7368    1.5964  -10.0490 C.3       8 UNK         0.0235 
     51 CB         24.8816    0.7605   -9.0817 C.3       8 UNK        -0.2000 
     52 C          26.9657    0.8701  -10.6191 C.2       8 UNK         0.4941 
     53 O          27.5751    1.3933  -11.5532 O.2       8 UNK        -0.5273 
     54 N          27.3032   -0.3168  -10.0949 N.am      9 UNK        -0.4262 
     55 CA         28.3232   -1.2153  -10.6480 C.3       9 UNK         0.0264 
     56 CB         27.7971   -2.6616  -10.5971 C.3       9 UNK        -0.1955 
     57 C          29.6985   -1.0793   -9.9669 C.2       9 UNK         0.5031 
     58 O          30.5111   -2.0010  -10.0729 O.2       9 UNK        -0.5390 
     59 N          29.9512    0.0547   -9.2985 N.am      10 UNK        -0.4204 
     60 CA         31.1778    0.3872   -8.5683 C.3       10 UNK         0.0237 
     61 CB         32.4093    0.4353   -9.5043 C.3       10 UNK        -0.1985 
     62 C          31.3375   -0.5010   -7.3230 C.2       10 UNK         0.4970 
     63 O          30.3526   -0.7325   -6.6209 O.2       10 UNK        -0.4914 
     64 N          32.5658   -0.9447   -7.0461 N.am      11 UNK        -0.4285 
     65 CA         32.9041   -1.7752   -5.8822 C.3       11 UNK         0.1007 
     66 C          32.7133   -3.3020   -6.1147 C.2       11 UNK         0.5703 
     67 N          32.2929   -3.7525   -7.2917 N.am      11 UNK        -0.7361 
     68 O          32.9446   -4.0950   -5.2053 O.2       11 UNK        -0.4986 
     69 C69        34.3212   -1.4423   -5.3439 C.3       12 UNK        -0.0947 
     70 S70        34.5224    0.3261   -4.9281 S.3       12 UNK        -0.2240 
     71 C71        34.3377    0.3200   -3.1176 C.3       12 UNK         0.0194 
     72 H72        27.4737   -7.7381    0.4707 H         1 UNK         0.0906 
     73 H73        28.8485   -6.6324    0.4245 H         1 UNK         0.0906 
     74 H74        27.8375   -6.7218    1.8678 H         1 UNK         0.0906 
     75 H75        28.4229   -4.8027   -0.8097 H         1 UNK         0.3140 
     76 H76        26.0022   -3.2586   -0.4656 H         1 UNK         0.1085 
     77 H77        27.0749   -1.6749   -2.0663 H         1 UNK         0.0836 
     78 H78        28.0798   -2.0714   -0.7122 H         1 UNK         0.0836 
     79 H79        30.2784   -2.8136   -0.7323 H         1 UNK         0.0731 
     80 H80        31.2124   -3.4214   -2.0714 H         1 UNK         0.0731 
     81 H81        32.9819   -1.9838   -2.5996 H         1 UNK         0.1312 
     82 H82        32.4886    2.2731   -2.6660 H         1 UNK         0.1406 
     83 H83        29.2372   -0.2391   -1.4584 H         1 UNK         0.1631 
     84 H84        30.3995    3.2910   -2.0979 H         1 UNK         0.0717 
     85 H85        29.8126    2.4743   -0.6746 H         1 UNK         0.0717 
     86 H86        27.5789    3.4853   -4.4192 H         1 UNK         0.0934 
     87 H87        29.2874    3.6343   -4.1361 H         1 UNK         0.0934 
     88 H88        29.7003    1.3674   -5.0177 H         1 UNK         0.0739 
     89 H89        28.2041   -0.2192   -5.0488 H         1 UNK         0.3093 
     90 H90        25.5728   -0.5521   -3.8926 H         1 UNK         0.0818 
     91 H91        23.6689   -1.4070   -5.1513 H         1 UNK         0.0819 
     92 H92        23.6819    0.3427   -5.2641 H         1 UNK         0.0819 
     93 H93        24.2156   -0.6291   -6.6287 H         1 UNK         0.0819 
     94 H94        26.4711   -2.4392   -4.5474 H         1 UNK         0.3041 
     95 H95        26.9736   -4.0760   -7.5442 H         1 UNK         0.0784 
     96 H96        29.3138   -3.1602   -5.7896 H         1 UNK         0.0793 
     97 H97        29.2883   -4.6125   -6.7898 H         1 UNK         0.0793 
     98 H98        29.2162   -3.0274   -7.5371 H         1 UNK         0.0793 
     99 H99        27.5703   -4.6027   -4.7370 H         1 UNK         0.3024 
    100 H100       24.3347   -5.7869   -3.9502 H         1 UNK         0.1171 
    101 H101       25.2753   -7.7822   -5.1296 H         1 UNK         0.0786 
    102 H102       25.4972   -7.9134   -3.3933 H         1 UNK         0.0786 
    103 H103       26.8571   -7.4725   -4.4275 H         1 UNK         0.0786 
    104 H104       26.8183   -5.8627   -2.5232 H         1 UNK         0.2977 
    105 H105       30.0211    3.9009   -5.9422 H         1 UNK         0.3127 
    106 H106       30.4007    3.5375   -8.6972 H         1 UNK         0.0770 
    107 H107       30.4564    6.1050   -7.0245 H         1 UNK         0.0814 
    108 H108       31.1593    5.9158   -8.6240 H         1 UNK         0.0814 
    109 H109       31.8104    5.0007   -7.2769 H         1 UNK         0.0814 
    110 H110       27.5285    4.6172   -7.1317 H         1 UNK         0.2983 
    111 H111       26.3460    6.0490   -9.3630 H         1 UNK         0.0947 
    112 H112       24.2710    5.8312   -7.9866 H         1 UNK         0.0806 
    113 H113       25.6049    6.4202   -7.0095 H         1 UNK         0.0806 
    114 H114       25.0938    4.7350   -6.8854 H         1 UNK         0.0806 
    115 H115       26.9372    2.6890   -8.7124 H         1 UNK         0.3000 
    116 H116       25.1155    1.8460  -10.9116 H         1 UNK         0.0850 
    117 H117       24.6207   -0.2116   -9.5022 H         1 UNK         0.0810 
    118 H118       25.4080    0.5986   -8.1427 H         1 UNK         0.0810 
    119 H119       23.9480    1.2712   -8.8458 H         1 UNK         0.0810 
    120 H120       26.8409   -0.6442   -9.2477 H         1 UNK         0.3040 
    121 H121       28.4830   -0.9725  -11.7005 H         1 UNK         0.0766 
    122 H122       28.4774   -3.3466  -11.1046 H         1 UNK         0.0812 
    123 H123       26.8277   -2.7498  -11.0876 H         1 UNK         0.0812 
    124 H124       27.6880   -3.0133   -9.5727 H         1 UNK         0.0812 
    125 H125       29.1770    0.6931   -9.1474 H         1 UNK         0.3205 
    126 H126       31.0417    1.3958   -8.1864 H         1 UNK         0.0754 
    127 H127       33.2737    0.8686   -8.9997 H         1 UNK         0.0769 
    128 H128       32.2107    1.0583  -10.3766 H         1 UNK         0.0769 
    129 H129       32.6964   -0.5528   -9.8655 H         1 UNK         0.0769 
    130 H130       33.3259   -0.7159   -7.6684 H         1 UNK         0.2981 
    131 H131       32.1975   -1.5310   -5.0894 H         1 UNK         0.0541 
    132 H132       32.0683   -3.1125   -8.0382 H         1 UNK         0.3459 
    133 H133       32.1752   -4.7438   -7.4246 H         1 UNK         0.3459 
    134 H134       35.0754   -1.6987   -6.0898 H         1 UNK         0.0612 
    135 H135       34.5555   -2.0430   -4.4638 H         1 UNK         0.0612 
    136 H136       34.7342    1.2585   -2.7273 H         1 UNK         0.0624 
    137 H137       34.9554   -0.4687   -2.6854 H         1 UNK         0.0624 
@<TRIPOS>BOND
     1    1    2 1    
     2    1   72 1    
     3    1   73 1    
     4    1   74 1    
     5    2    3 2    
     6    2    4 am   BACKBONE|DICT|INTERRES
     7    4    5 1    
     8    4   75 1    
     9    5    6 1    
    10    5   35 1    
    11    5   76 1    
    12    6    7 1    
    13    6   77 1    
    14    6   78 1    
    15    7    8 1    
    16    8    9 1    
    17    8   79 1    
    18    8   80 1    
    19    9   10 ar   
    20    9   14 ar   
    21   10   11 ar   
    22   10   81 1    
    23   11   12 ar   
    24   11   71 1    
    25   12   13 ar   
    26   12   82 1    
    27   13   14 ar   
    28   13   15 1    
    29   14   83 1    
    30   15   16 1    
    31   15   84 1    
    32   15   85 1    
    33   16   17 1    
    34   17   18 1    
    35   17   86 1    
    36   17   87 1    
    37   18   19 1    
    38   18   37 1    
    39   18   88 1    
    40   19   20 am   BACKBONE|DICT|INTERRES
    41   19   89 1    
    42   20   21 2    
    43   20   22 1    
    44   22   23 1    
    45   22   24 1    
    46   22   90 1    
    47   23   91 1    
    48   23   92 1    
    49   23   93 1    
    50   24   25 am   BACKBONE|DICT|INTERRES
    51   24   94 1    
    52   25   26 2    
    53   25   27 1    
    54   27   28 1    
    55   27   29 1    
    56   27   95 1    
    57   28   96 1    
    58   28   97 1    
    59   28   98 1    
    60   29   30 am   BACKBONE|DICT|INTERRES
    61   29   99 1    
    62   30   31 2    
    63   30   32 1    
    64   32   33 1    
    65   32   34 1    
    66   32  100 1    
    67   33  101 1    
    68   33  102 1    
    69   33  103 1    
    70   34   35 am   BACKBONE|DICT|INTERRES
    71   34  104 1    
    72   35   36 2    
    73   37   38 2    
    74   37   39 am   BACKBONE|DICT|INTERRES
    75   39   40 1    
    76   39  105 1    
    77   40   41 1    
    78   40   42 1    
    79   40  106 1    
    80   41  107 1    
    81   41  108 1    
    82   41  109 1    
    83   42   43 2    
    84   42   44 am   BACKBONE|DICT|INTERRES
    85   44   45 1    
    86   44  110 1    
    87   45   46 1    
    88   45   47 1    
    89   45  111 1    
    90   46  112 1    
    91   46  113 1    
    92   46  114 1    
    93   47   48 2    
    94   47   49 am   BACKBONE|DICT|INTERRES
    95   49   50 1    
    96   49  115 1    
    97   50   51 1    
    98   50   52 1    
    99   50  116 1    
   100   51  117 1    
   101   51  118 1    
   102   51  119 1    
   103   52   53 2    
   104   52   54 am   BACKBONE|DICT|INTERRES
   105   54   55 1    
   106   54  120 1    
   107   55   56 1    
   108   55   57 1    
   109   55  121 1    
   110   56  122 1    
   111   56  123 1    
   112   56  124 1    
   113   57   58 2    
   114   57   59 am   BACKBONE|DICT|INTERRES
   115   59   60 1    
   116   59  125 1    
   117   60   61 1    
   118   60   62 1    
   119   60  126 1    
   120   61  127 1    
   121   61  128 1    
   122   61  129 1    
   123   62   63 2    
   124   62   64 am   BACKBONE|DICT|INTERRES
   125   64   65 1    
   126   64  130 1    
   127   65   66 1    
   128   65   69 1    
   129   65  131 1    
   130   66   67 am   BACKBONE|DICT|INTERRES
   131   66   68 2    
   132   67  132 1    
   133   67  133 1    
   134   69   70 1    
   135   69  134 1    
   136   69  135 1    
   137   70   71 1    
   138   71  136 1    
   139   71  137 1    
@<TRIPOS>SUBSTRUCTURE
     1 UNK         1 GROUP             0       ****    0 ROOT    
