@<TRIPOS>MOLECULE
3R137
137   139    1
SMALL
USER_CHARGES


@<TRIPOS>ATOM
      1 CA         26.2274   -6.4398   -4.6250 C.3       0 UNK        -0.2020 
      2 C          26.3788   -5.5295   -3.4162 C.2       0 UNK         0.4855 
      3 O          25.3758   -5.1095   -2.8381 O.2       0 UNK        -0.5197 
      4 N          27.6249   -5.2085   -3.0400 N.am      1 UNK        -0.4892 
      5 CA         27.9842   -4.3075   -1.9370 C.3       1 UNK         0.0835 
      6 C6         29.5211   -4.2361   -1.7572 C.3       12 UNK        -0.0855 
      7 S7         30.0463   -3.8882   -0.0405 S.3       12 UNK        -0.2931 
      8 C8         30.2152   -2.0643    0.0226 C.3       12 UNK         0.0378 
      9 C9         31.0573   -1.4317   -1.0867 C.ar      12 UNK        -0.0802 
     10 C10        32.1145   -2.1134   -1.7014 C.ar      12 UNK        -0.0944 
     11 C11        32.7996   -1.5421   -2.7758 C.ar      12 UNK        -0.0787 
     12 C12        32.4501   -0.2610   -3.2104 C.ar      12 UNK        -0.0862 
     13 C13        31.4120    0.4471   -2.5992 C.ar      12 UNK        -0.0733 
     14 C14        30.7446   -0.1365   -1.5141 C.ar      12 UNK        -0.0832 
     15 C15        31.0538    1.8281   -3.1565 C.3       12 UNK         0.0240 
     16 S16        29.3676    2.4512   -2.8073 S.3       12 UNK        -0.2522 
     17 C17        28.2713    1.1163   -3.3953 C.3       12 UNK        -0.0967 
     18 CA         28.1919    0.9573   -4.9326 C.3       5 UNK         0.0660 
     19 N          27.8222   -0.4155   -5.2838 N.am      5 UNK        -0.4015 
     20 C          27.7367   -0.9330   -6.5158 C.2       4 UNK         0.4946 
     21 O          28.0364   -0.3261   -7.5445 O.2       4 UNK        -0.5353 
     22 CA         27.1942   -2.3664   -6.6133 C.3       4 UNK         0.0277 
     23 CB         28.3026   -3.3985   -6.3435 C.3       4 UNK        -0.1981 
     24 N          26.0814   -2.5734   -5.6844 N.am      4 UNK        -0.4209 
     25 C          24.8317   -2.1363   -5.9005 C.2       3 UNK         0.4942 
     26 O          24.4655   -1.6049   -6.9485 O.2       3 UNK        -0.5208 
     27 CA         23.8214   -2.2940   -4.7502 C.3       3 UNK         0.0250 
     28 CB         23.0262   -3.6005   -4.9007 C.3       3 UNK        -0.1990 
     29 N          24.4468   -2.2431   -3.4248 N.am      3 UNK        -0.4232 
     30 C          24.9529   -1.1248   -2.8820 C.2       2 UNK         0.4993 
     31 O          24.9320   -0.0288   -3.4409 O.2       2 UNK        -0.5286 
     32 CA         25.6585   -1.2540   -1.5185 C.3       2 UNK         0.0209 
     33 CB         24.6458   -1.1115   -0.3719 C.3       2 UNK        -0.1931 
     34 N          26.4118   -2.5024   -1.3566 N.am      2 UNK        -0.4546 
     35 C          27.3870   -2.9089   -2.1803 C.2       1 UNK         0.5154 
     36 O          27.7687   -2.2549   -3.1527 O.2       1 UNK        -0.5181 
     37 C          27.2464    1.9967   -5.5664 C.2       5 UNK         0.5014 
     38 O          27.7214    2.9885   -6.1196 O.2       5 UNK        -0.5248 
     39 N          25.9323    1.7252   -5.5213 N.am      6 UNK        -0.4434 
     40 CA         24.8602    2.5593   -6.0780 C.3       6 UNK         0.0363 
     41 CB         23.5019    1.9180   -5.7510 C.3       6 UNK        -0.1936 
     42 C          24.9627    2.8421   -7.5896 C.2       6 UNK         0.5081 
     43 O          24.4111    3.8442   -8.0452 O.2       6 UNK        -0.5248 
     44 N          25.6720    1.9865   -8.3399 N.am      7 UNK        -0.4718 
     45 CA         25.9737    2.1919   -9.7607 C.3       7 UNK         0.0273 
     46 CB         26.3515    0.8406  -10.3905 C.3       7 UNK        -0.1935 
     47 C          27.0838    3.2356  -10.0075 C.2       7 UNK         0.5018 
     48 O          27.2655    3.6460  -11.1541 O.2       7 UNK        -0.5186 
     49 N          27.8072    3.6234   -8.9450 N.am      8 UNK        -0.4240 
     50 CA         28.9758    4.5075   -8.9063 C.3       8 UNK         0.0235 
     51 CB         28.5246    5.9709   -9.1006 C.3       8 UNK        -0.2000 
     52 C          30.1153    4.0981   -9.8716 C.2       8 UNK         0.4941 
     53 O          30.4935    4.9023  -10.7238 O.2       8 UNK        -0.5273 
     54 N          30.6868    2.8885   -9.7793 N.am      9 UNK        -0.4262 
     55 CA         30.3840    1.7633   -8.8979 C.3       9 UNK         0.0264 
     56 CB         31.1541    1.8879   -7.5712 C.3       9 UNK        -0.1955 
     57 C          30.7850    0.4940   -9.6520 C.2       9 UNK         0.5031 
     58 O          31.8440    0.4779  -10.2847 O.2       9 UNK        -0.5390 
     59 N          29.9568   -0.5523   -9.5541 N.am      10 UNK        -0.4204 
     60 CA         30.1979   -1.8570  -10.1830 C.3       10 UNK         0.0237 
     61 CB         28.8701   -2.6229  -10.2954 C.3       10 UNK        -0.1985 
     62 C          31.2588   -2.6917   -9.4415 C.2       10 UNK         0.4970 
     63 O          31.7949   -3.6389  -10.0168 O.2       10 UNK        -0.4914 
     64 N          31.5479   -2.3145   -8.1900 N.am      11 UNK        -0.4285 
     65 CA         32.6245   -2.8565   -7.3523 C.3       11 UNK         0.1007 
     66 C          34.0592   -2.4805   -7.8381 C.2       11 UNK         0.5703 
     67 N          34.2307   -1.4882   -8.7061 N.am      11 UNK        -0.7361 
     68 O          35.0338   -3.1103   -7.4359 O.2       11 UNK        -0.4986 
     69 C69        32.3799   -2.4479   -5.8763 C.3       12 UNK        -0.0947 
     70 S70        33.1760   -3.5418   -4.6522 S.3       12 UNK        -0.2240 
     71 C71        33.8879   -2.3288   -3.4927 C.3       12 UNK         0.0194 
     72 H72        25.6100   -7.3008   -4.3704 H         1 UNK         0.0906 
     73 H73        25.7441   -5.9031   -5.4409 H         1 UNK         0.0906 
     74 H74        27.1890   -6.8073   -4.9829 H         1 UNK         0.0906 
     75 H75        28.4034   -5.5762   -3.5678 H         1 UNK         0.3140 
     76 H76        27.5434   -4.7300   -1.0314 H         1 UNK         0.1085 
     77 H77        29.9784   -3.5441   -2.4660 H         1 UNK         0.0836 
     78 H78        29.9608   -5.2057   -1.9967 H         1 UNK         0.0836 
     79 H79        30.6513   -1.7915    0.9843 H         1 UNK         0.0731 
     80 H80        29.2108   -1.6381    0.0110 H         1 UNK         0.0731 
     81 H81        32.3798   -3.1102   -1.3780 H         1 UNK         0.1312 
     82 H82        32.9788    0.1824   -4.0430 H         1 UNK         0.1406 
     83 H83        29.9486    0.4022   -1.0195 H         1 UNK         0.1631 
     84 H84        31.1920    1.8309   -4.2386 H         1 UNK         0.0717 
     85 H85        31.7685    2.5499   -2.7596 H         1 UNK         0.0717 
     86 H86        28.6080    0.1844   -2.9478 H         1 UNK         0.0934 
     87 H87        27.2809    1.2845   -2.9689 H         1 UNK         0.0934 
     88 H88        29.1842    1.1190   -5.3542 H         1 UNK         0.0739 
     89 H89        27.6388   -1.0379   -4.4992 H         1 UNK         0.3093 
     90 H90        26.8274   -2.5160   -7.6308 H         1 UNK         0.0818 
     91 H91        28.7225   -3.3024   -5.3423 H         1 UNK         0.0819 
     92 H92        27.9290   -4.4164   -6.4533 H         1 UNK         0.0819 
     93 H93        29.1262   -3.2830   -7.0471 H         1 UNK         0.0819 
     94 H94        26.3122   -2.9439   -4.7727 H         1 UNK         0.3041 
     95 H95        23.1166   -1.4624   -4.8205 H         1 UNK         0.0784 
     96 H96        22.5065   -3.6308   -5.8594 H         1 UNK         0.0793 
     97 H97        23.6711   -4.4778   -4.8537 H         1 UNK         0.0793 
     98 H98        22.2710   -3.6975   -4.1206 H         1 UNK         0.0793 
     99 H99        24.5547   -3.1241   -2.9327 H         1 UNK         0.3024 
    100 H100       26.3724   -0.4313   -1.4451 H         1 UNK         0.1171 
    101 H101       25.1431   -1.0975    0.5981 H         1 UNK         0.0786 
    102 H102       24.0860   -0.1790   -0.4599 H         1 UNK         0.0786 
    103 H103       23.9217   -1.9273   -0.3676 H         1 UNK         0.0786 
    104 H104       26.1227   -3.1117   -0.6044 H         1 UNK         0.2977 
    105 H105       25.6284    0.9219   -4.9760 H         1 UNK         0.3127 
    106 H106       24.9115    3.5250   -5.5714 H         1 UNK         0.0770 
    107 H107       23.4141    0.9211   -6.1846 H         1 UNK         0.0814 
    108 H108       22.6792    2.5183   -6.1419 H         1 UNK         0.0814 
    109 H109       23.3520    1.8307   -4.6748 H         1 UNK         0.0814 
    110 H110       26.0987    1.1854   -7.8924 H         1 UNK         0.2983 
    111 H111       25.0719    2.5568  -10.2574 H         1 UNK         0.0947 
    112 H112       26.5082    0.9409  -11.4653 H         1 UNK         0.0806 
    113 H113       25.5648    0.0997  -10.2462 H         1 UNK         0.0806 
    114 H114       27.2707    0.4396   -9.9664 H         1 UNK         0.0806 
    115 H115       27.5615    3.2304   -8.0401 H         1 UNK         0.3000 
    116 H116       29.3857    4.4288   -7.8990 H         1 UNK         0.0850 
    117 H117       29.3644    6.6583   -8.9909 H         1 UNK         0.0810 
    118 H118       27.7762    6.2550   -8.3606 H         1 UNK         0.0810 
    119 H119       28.0955    6.1337  -10.0899 H         1 UNK         0.0810 
    120 H120       31.4075    2.6562  -10.4517 H         1 UNK         0.3040 
    121 H121       29.3210    1.6949   -8.6848 H         1 UNK         0.0766 
    122 H122       31.0073    1.0039   -6.9499 H         1 UNK         0.0812 
    123 H123       30.8184    2.7469   -6.9910 H         1 UNK         0.0812 
    124 H124       32.2270    1.9938   -7.7372 H         1 UNK         0.0812 
    125 H125       29.1369   -0.4719   -8.9505 H         1 UNK         0.3205 
    126 H126       30.5727   -1.6860  -11.1946 H         1 UNK         0.0754 
    127 H127       29.0112   -3.5747  -10.8094 H         1 UNK         0.0769 
    128 H128       28.1319   -2.0558  -10.8629 H         1 UNK         0.0769 
    129 H129       28.4443   -2.8423   -9.3182 H         1 UNK         0.0769 
    130 H130       31.0554   -1.5206   -7.8133 H         1 UNK         0.2981 
    131 H131       32.5507   -3.9437   -7.4183 H         1 UNK         0.0541 
    132 H132       35.1636   -1.2654   -9.0146 H         1 UNK         0.3459 
    133 H133       33.4449   -0.9719   -9.0725 H         1 UNK         0.3459 
    134 H134       32.6912   -1.4144   -5.7250 H         1 UNK         0.0612 
    135 H135       31.3131   -2.4714   -5.6467 H         1 UNK         0.0612 
    136 H136       34.5610   -1.6610   -4.0328 H         1 UNK         0.0624 
    137 H137       34.5007   -2.8568   -2.7608 H         1 UNK         0.0624 
@<TRIPOS>BOND
     1    1    2 1    
     2    1   72 1    
     3    1   73 1    
     4    1   74 1    
     5    2    3 2    
     6    2    4 am   BACKBONE|DICT|INTERRES
     7    4    5 1    
     8    4   75 1    
     9    5    6 1    
    10    5   35 1    
    11    5   76 1    
    12    6    7 1    
    13    6   77 1    
    14    6   78 1    
    15    7    8 1    
    16    8    9 1    
    17    8   79 1    
    18    8   80 1    
    19    9   10 ar   
    20    9   14 ar   
    21   10   11 ar   
    22   10   81 1    
    23   11   12 ar   
    24   11   71 1    
    25   12   13 ar   
    26   12   82 1    
    27   13   14 ar   
    28   13   15 1    
    29   14   83 1    
    30   15   16 1    
    31   15   84 1    
    32   15   85 1    
    33   16   17 1    
    34   17   18 1    
    35   17   86 1    
    36   17   87 1    
    37   18   19 1    
    38   18   37 1    
    39   18   88 1    
    40   19   20 am   BACKBONE|DICT|INTERRES
    41   19   89 1    
    42   20   21 2    
    43   20   22 1    
    44   22   23 1    
    45   22   24 1    
    46   22   90 1    
    47   23   91 1    
    48   23   92 1    
    49   23   93 1    
    50   24   25 am   BACKBONE|DICT|INTERRES
    51   24   94 1    
    52   25   26 2    
    53   25   27 1    
    54   27   28 1    
    55   27   29 1    
    56   27   95 1    
    57   28   96 1    
    58   28   97 1    
    59   28   98 1    
    60   29   30 am   BACKBONE|DICT|INTERRES
    61   29   99 1    
    62   30   31 2    
    63   30   32 1    
    64   32   33 1    
    65   32   34 1    
    66   32  100 1    
    67   33  101 1    
    68   33  102 1    
    69   33  103 1    
    70   34   35 am   BACKBONE|DICT|INTERRES
    71   34  104 1    
    72   35   36 2    
    73   37   38 2    
    74   37   39 am   BACKBONE|DICT|INTERRES
    75   39   40 1    
    76   39  105 1    
    77   40   41 1    
    78   40   42 1    
    79   40  106 1    
    80   41  107 1    
    81   41  108 1    
    82   41  109 1    
    83   42   43 2    
    84   42   44 am   BACKBONE|DICT|INTERRES
    85   44   45 1    
    86   44  110 1    
    87   45   46 1    
    88   45   47 1    
    89   45  111 1    
    90   46  112 1    
    91   46  113 1    
    92   46  114 1    
    93   47   48 2    
    94   47   49 am   BACKBONE|DICT|INTERRES
    95   49   50 1    
    96   49  115 1    
    97   50   51 1    
    98   50   52 1    
    99   50  116 1    
   100   51  117 1    
   101   51  118 1    
   102   51  119 1    
   103   52   53 2    
   104   52   54 am   BACKBONE|DICT|INTERRES
   105   54   55 1    
   106   54  120 1    
   107   55   56 1    
   108   55   57 1    
   109   55  121 1    
   110   56  122 1    
   111   56  123 1    
   112   56  124 1    
   113   57   58 2    
   114   57   59 am   BACKBONE|DICT|INTERRES
   115   59   60 1    
   116   59  125 1    
   117   60   61 1    
   118   60   62 1    
   119   60  126 1    
   120   61  127 1    
   121   61  128 1    
   122   61  129 1    
   123   62   63 2    
   124   62   64 am   BACKBONE|DICT|INTERRES
   125   64   65 1    
   126   64  130 1    
   127   65   66 1    
   128   65   69 1    
   129   65  131 1    
   130   66   67 am   BACKBONE|DICT|INTERRES
   131   66   68 2    
   132   67  132 1    
   133   67  133 1    
   134   69   70 1    
   135   69  134 1    
   136   69  135 1    
   137   70   71 1    
   138   71  136 1    
   139   71  137 1    
@<TRIPOS>SUBSTRUCTURE
     1 UNK         1 GROUP             0       ****    0 ROOT    
