@<TRIPOS>MOLECULE
3R137
137   139    1
SMALL
USER_CHARGES


@<TRIPOS>ATOM
      1 CA         23.1189   -4.5085    0.2000 C.3       0 UNK        -0.2020 
      2 C          24.5080   -3.8885    0.1837 C.2       0 UNK         0.4855 
      3 O          24.6897   -2.7813    0.6920 O.2       0 UNK        -0.5197 
      4 N          25.4907   -4.5931   -0.3933 N.am      1 UNK        -0.4892 
      5 CA         26.8579   -4.0988   -0.5916 C.3       1 UNK         0.0835 
      6 C6         27.8403   -5.2566   -0.9039 C.3       12 UNK        -0.0855 
      7 S7         29.5664   -4.8470   -0.4604 S.3       12 UNK        -0.2931 
      8 C8         30.5055   -5.5213   -1.8686 C.3       12 UNK         0.0378 
      9 C9         30.6224   -4.5400   -3.0291 C.ar      12 UNK        -0.0802 
     10 C10        31.7098   -3.6608   -3.1008 C.ar      12 UNK        -0.0944 
     11 C11        31.8738   -2.8170   -4.2055 C.ar      12 UNK        -0.0787 
     12 C12        30.9228   -2.8400   -5.2282 C.ar      12 UNK        -0.0862 
     13 C13        29.8214   -3.6967   -5.1622 C.ar      12 UNK        -0.0733 
     14 C14        29.6826   -4.5529   -4.0646 C.ar      12 UNK        -0.0832 
     15 C15        28.8070   -3.7129   -6.2972 C.3       12 UNK         0.0240 
     16 S16        27.1273   -3.3667   -5.7048 S.3       12 UNK        -0.2522 
     17 C17        26.2936   -2.8241   -7.2375 C.3       12 UNK        -0.0967 
     18 CA         25.9088   -1.3182   -7.2197 C.3       5 UNK         0.0660 
     19 N          25.1493   -0.9633   -6.0078 N.am      5 UNK        -0.4015 
     20 C          23.8439   -1.2510   -5.8718 C.2       4 UNK         0.4946 
     21 O          23.1256   -1.5716   -6.8212 O.2       4 UNK        -0.5353 
     22 CA         23.2095   -1.2494   -4.4663 C.3       4 UNK         0.0277 
     23 CB         22.8198   -2.6825   -4.0618 C.3       4 UNK        -0.1981 
     24 N          24.0775   -0.7048   -3.4247 N.am      4 UNK        -0.4209 
     25 C          24.0586    0.5697   -3.0092 C.2       3 UNK         0.4942 
     26 O          23.2820    1.4189   -3.4484 O.2       3 UNK        -0.5208 
     27 CA         25.0813    0.9858   -1.9300 C.3       3 UNK         0.0250 
     28 CB         24.4088    1.0304   -0.5481 C.3       3 UNK        -0.1990 
     29 N          26.2783    0.1408   -1.8478 N.am      3 UNK        -0.4232 
     30 C          27.1006   -0.1367   -2.8687 C.2       2 UNK         0.4993 
     31 O          26.9282    0.2922   -4.0070 O.2       2 UNK        -0.5286 
     32 CA         28.2507   -1.1207   -2.6079 C.3       2 UNK         0.0209 
     33 CB         29.5120   -0.3715   -2.1561 C.3       2 UNK        -0.1931 
     34 N          27.9415   -2.1699   -1.6327 N.am      2 UNK        -0.4546 
     35 C          26.8966   -3.0076   -1.6817 C.2       1 UNK         0.5154 
     36 O          26.0006   -2.9441   -2.5290 O.2       1 UNK        -0.5181 
     37 C          27.1118   -0.4070   -7.5464 C.2       5 UNK         0.5014 
     38 O          27.6595   -0.5397   -8.6445 O.2       5 UNK        -0.5248 
     39 N          27.5117    0.5061   -6.6474 N.am      6 UNK        -0.4434 
     40 CA         28.6744    1.3941   -6.7913 C.3       6 UNK         0.0363 
     41 CB         28.7941    2.3129   -5.5649 C.3       6 UNK        -0.1936 
     42 C          28.6856    2.2487   -8.0657 C.2       6 UNK         0.5081 
     43 O          29.7607    2.4761   -8.6167 O.2       6 UNK        -0.5248 
     44 N          27.5022    2.6737   -8.5271 N.am      7 UNK        -0.4718 
     45 CA         27.3186    3.4444   -9.7604 C.3       7 UNK         0.0273 
     46 CB         25.8630    3.9323   -9.8387 C.3       7 UNK        -0.1935 
     47 C          27.6970    2.6717  -11.0381 C.2       7 UNK         0.5018 
     48 O          28.0825    3.3012  -12.0239 O.2       7 UNK        -0.5186 
     49 N          27.5860    1.3369  -10.9995 N.am      8 UNK        -0.4240 
     50 CA         27.9879    0.4424  -12.0841 C.3       8 UNK         0.0235 
     51 CB         27.0071   -0.7400  -12.1621 C.3       8 UNK        -0.2000 
     52 C          29.4241   -0.0598  -11.8807 C.2       8 UNK         0.4941 
     53 O          30.1955   -0.0909  -12.8399 O.2       8 UNK        -0.5273 
     54 N          29.7534   -0.4553  -10.6431 N.am      9 UNK        -0.4262 
     55 CA         31.0363   -1.0633  -10.2817 C.3       9 UNK         0.0264 
     56 CB         30.8564   -1.8395   -8.9696 C.3       9 UNK        -0.1955 
     57 C          32.2084   -0.0741  -10.1573 C.2       9 UNK         0.5031 
     58 O          33.3563   -0.5182  -10.2064 O.2       9 UNK        -0.5390 
     59 N          31.9129    1.2206   -9.9652 N.am      10 UNK        -0.4204 
     60 CA         32.8503    2.3085   -9.6534 C.3       10 UNK         0.0237 
     61 CB         33.8404    2.5563  -10.8125 C.3       10 UNK        -0.1985 
     62 C          33.5374    2.1043   -8.2875 C.2       10 UNK         0.4970 
     63 O          34.7444    2.3198   -8.1616 O.2       10 UNK        -0.4914 
     64 N          32.7485    1.6750   -7.2928 N.am      11 UNK        -0.4285 
     65 CA         33.1812    1.4617   -5.9045 C.3       11 UNK         0.1007 
     66 C          33.5005    2.8021   -5.1856 C.2       11 UNK         0.5703 
     67 N          34.5542    2.8461   -4.3819 N.am      11 UNK        -0.7361 
     68 O          32.7816    3.7896   -5.3288 O.2       11 UNK        -0.4986 
     69 C69        32.1358    0.6187   -5.1255 C.3       12 UNK        -0.0947 
     70 S70        32.8469   -0.2504   -3.6856 S.3       12 UNK        -0.2240 
     71 C71        33.1107   -1.9336   -4.3275 C.3       12 UNK         0.0194 
     72 H72        23.1065   -5.4955   -0.2621 H         1 UNK         0.0906 
     73 H73        22.7646   -4.6095    1.2255 H         1 UNK         0.0906 
     74 H74        22.4196   -3.8720   -0.3416 H         1 UNK         0.0906 
     75 H75        25.2755   -5.4791   -0.8279 H         1 UNK         0.3140 
     76 H76        27.1612   -3.6352    0.3505 H         1 UNK         0.1085 
     77 H77        27.5746   -6.1378   -0.3174 H         1 UNK         0.0836 
     78 H78        27.7666   -5.5659   -1.9478 H         1 UNK         0.0836 
     79 H79        31.5044   -5.7856   -1.5181 H         1 UNK         0.0731 
     80 H80        30.0539   -6.4569   -2.2024 H         1 UNK         0.0731 
     81 H81        32.4481   -3.6569   -2.3105 H         1 UNK         0.1312 
     82 H82        31.0528   -2.2063   -6.0912 H         1 UNK         0.1406 
     83 H83        28.8440   -5.2342   -4.0264 H         1 UNK         0.1631 
     84 H84        29.0673   -2.9656   -7.0453 H         1 UNK         0.0717 
     85 H85        28.8265   -4.6824   -6.7965 H         1 UNK         0.0717 
     86 H86        26.8978   -3.0727   -8.1124 H         1 UNK         0.0934 
     87 H87        25.3881   -3.4239   -7.3408 H         1 UNK         0.0934 
     88 H88        25.2505   -1.1543   -8.0757 H         1 UNK         0.0739 
     89 H89        25.6866   -0.6898   -5.1916 H         1 UNK         0.3093 
     90 H90        22.2929   -0.6590   -4.5277 H         1 UNK         0.0818 
     91 H91        22.3337   -2.7023   -3.0862 H         1 UNK         0.0819 
     92 H92        22.1225   -3.1181   -4.7787 H         1 UNK         0.0819 
     93 H93        23.6909   -3.3379   -4.0153 H         1 UNK         0.0819 
     94 H94        24.7562   -1.3458   -3.0232 H         1 UNK         0.3041 
     95 H95        25.4168    1.9937   -2.1824 H         1 UNK         0.0784 
     96 H96        23.5238    1.6683   -0.5630 H         1 UNK         0.0793 
     97 H97        24.0908    0.0382   -0.2240 H         1 UNK         0.0793 
     98 H98        25.0818    1.4323    0.2095 H         1 UNK         0.0793 
     99 H99        26.4710   -0.2883   -0.9542 H         1 UNK         0.3024 
    100 H100       28.4688   -1.6173   -3.5555 H         1 UNK         0.1171 
    101 H101       30.3572   -1.0521   -2.0517 H         1 UNK         0.0786 
    102 H102       29.8007    0.3861   -2.8844 H         1 UNK         0.0786 
    103 H103       29.3652    0.1321   -1.2000 H         1 UNK         0.0786 
    104 H104       28.6408   -2.3331   -0.9216 H         1 UNK         0.2977 
    105 H105       27.0804    0.5165   -5.7240 H         1 UNK         0.3127 
    106 H106       29.5573    0.7545   -6.8262 H         1 UNK         0.0770 
    107 H107       27.8896    2.9032   -5.4137 H         1 UNK         0.0814 
    108 H108       29.6262    3.0110   -5.6730 H         1 UNK         0.0814 
    109 H109       28.9757    1.7440   -4.6555 H         1 UNK         0.0814 
    110 H110       26.6721    2.4352   -8.0038 H         1 UNK         0.2983 
    111 H111       27.9719    4.3183   -9.7068 H         1 UNK         0.0947 
    112 H112       25.7008    4.5331  -10.7349 H         1 UNK         0.0806 
    113 H113       25.6063    4.5566   -8.9826 H         1 UNK         0.0806 
    114 H114       25.1588    3.1001   -9.8728 H         1 UNK         0.0806 
    115 H115       27.3086    0.8986  -10.1289 H         1 UNK         0.3000 
    116 H116       27.9491    0.9730  -13.0381 H         1 UNK         0.0850 
    117 H117       27.2825   -1.4218  -12.9678 H         1 UNK         0.0810 
    118 H118       25.9915   -0.3975  -12.3611 H         1 UNK         0.0810 
    119 H119       26.9890   -1.3182  -11.2373 H         1 UNK         0.0810 
    120 H120       29.0394   -0.4315   -9.9183 H         1 UNK         0.3040 
    121 H121       31.3060   -1.7796  -11.0610 H         1 UNK         0.0766 
    122 H122       30.1326   -2.6446   -9.0937 H         1 UNK         0.0812 
    123 H123       30.5084   -1.1892   -8.1670 H         1 UNK         0.0812 
    124 H124       31.7936   -2.2947   -8.6456 H         1 UNK         0.0812 
    125 H125       30.9340    1.4758   -9.8716 H         1 UNK         0.3205 
    126 H126       32.2433    3.2094   -9.5508 H         1 UNK         0.0754 
    127 H127       34.4323    3.4545  -10.6327 H         1 UNK         0.0769 
    128 H128       33.3158    2.6981  -11.7574 H         1 UNK         0.0769 
    129 H129       34.5395    1.7291  -10.9375 H         1 UNK         0.0769 
    130 H130       31.7595    1.5977   -7.4763 H         1 UNK         0.2981 
    131 H131       34.1039    0.8802   -5.9619 H         1 UNK         0.0541 
    132 H132       35.1321    2.0325   -4.2390 H         1 UNK         0.3459 
    133 H133       34.7677    3.7045   -3.8990 H         1 UNK         0.3459 
    134 H134       31.3136    1.2432   -4.7765 H         1 UNK         0.0612 
    135 H135       31.6845   -0.1196   -5.7851 H         1 UNK         0.0612 
    136 H136       33.9359   -2.3841   -3.7741 H         1 UNK         0.0624 
    137 H137       33.4410   -1.8832   -5.3663 H         1 UNK         0.0624 
@<TRIPOS>BOND
     1    1    2 1    
     2    1   72 1    
     3    1   73 1    
     4    1   74 1    
     5    2    3 2    
     6    2    4 am   BACKBONE|DICT|INTERRES
     7    4    5 1    
     8    4   75 1    
     9    5    6 1    
    10    5   35 1    
    11    5   76 1    
    12    6    7 1    
    13    6   77 1    
    14    6   78 1    
    15    7    8 1    
    16    8    9 1    
    17    8   79 1    
    18    8   80 1    
    19    9   10 ar   
    20    9   14 ar   
    21   10   11 ar   
    22   10   81 1    
    23   11   12 ar   
    24   11   71 1    
    25   12   13 ar   
    26   12   82 1    
    27   13   14 ar   
    28   13   15 1    
    29   14   83 1    
    30   15   16 1    
    31   15   84 1    
    32   15   85 1    
    33   16   17 1    
    34   17   18 1    
    35   17   86 1    
    36   17   87 1    
    37   18   19 1    
    38   18   37 1    
    39   18   88 1    
    40   19   20 am   BACKBONE|DICT|INTERRES
    41   19   89 1    
    42   20   21 2    
    43   20   22 1    
    44   22   23 1    
    45   22   24 1    
    46   22   90 1    
    47   23   91 1    
    48   23   92 1    
    49   23   93 1    
    50   24   25 am   BACKBONE|DICT|INTERRES
    51   24   94 1    
    52   25   26 2    
    53   25   27 1    
    54   27   28 1    
    55   27   29 1    
    56   27   95 1    
    57   28   96 1    
    58   28   97 1    
    59   28   98 1    
    60   29   30 am   BACKBONE|DICT|INTERRES
    61   29   99 1    
    62   30   31 2    
    63   30   32 1    
    64   32   33 1    
    65   32   34 1    
    66   32  100 1    
    67   33  101 1    
    68   33  102 1    
    69   33  103 1    
    70   34   35 am   BACKBONE|DICT|INTERRES
    71   34  104 1    
    72   35   36 2    
    73   37   38 2    
    74   37   39 am   BACKBONE|DICT|INTERRES
    75   39   40 1    
    76   39  105 1    
    77   40   41 1    
    78   40   42 1    
    79   40  106 1    
    80   41  107 1    
    81   41  108 1    
    82   41  109 1    
    83   42   43 2    
    84   42   44 am   BACKBONE|DICT|INTERRES
    85   44   45 1    
    86   44  110 1    
    87   45   46 1    
    88   45   47 1    
    89   45  111 1    
    90   46  112 1    
    91   46  113 1    
    92   46  114 1    
    93   47   48 2    
    94   47   49 am   BACKBONE|DICT|INTERRES
    95   49   50 1    
    96   49  115 1    
    97   50   51 1    
    98   50   52 1    
    99   50  116 1    
   100   51  117 1    
   101   51  118 1    
   102   51  119 1    
   103   52   53 2    
   104   52   54 am   BACKBONE|DICT|INTERRES
   105   54   55 1    
   106   54  120 1    
   107   55   56 1    
   108   55   57 1    
   109   55  121 1    
   110   56  122 1    
   111   56  123 1    
   112   56  124 1    
   113   57   58 2    
   114   57   59 am   BACKBONE|DICT|INTERRES
   115   59   60 1    
   116   59  125 1    
   117   60   61 1    
   118   60   62 1    
   119   60  126 1    
   120   61  127 1    
   121   61  128 1    
   122   61  129 1    
   123   62   63 2    
   124   62   64 am   BACKBONE|DICT|INTERRES
   125   64   65 1    
   126   64  130 1    
   127   65   66 1    
   128   65   69 1    
   129   65  131 1    
   130   66   67 am   BACKBONE|DICT|INTERRES
   131   66   68 2    
   132   67  132 1    
   133   67  133 1    
   134   69   70 1    
   135   69  134 1    
   136   69  135 1    
   137   70   71 1    
   138   71  136 1    
   139   71  137 1    
@<TRIPOS>SUBSTRUCTURE
     1 UNK         1 GROUP             0       ****    0 ROOT    
