@<TRIPOS>MOLECULE
3R137
137   139    1
SMALL
USER_CHARGES


@<TRIPOS>ATOM
      1 CA         26.3369   -1.3930    4.4456 C.3       0 UNK        -0.2020 
      2 C          26.4929   -2.1170    3.1164 C.2       0 UNK         0.4855 
      3 O          26.0044   -3.2384    2.9740 O.2       0 UNK        -0.5197 
      4 N          27.1739   -1.4837    2.1504 N.am      1 UNK        -0.4892 
      5 CA         27.4016   -1.9674    0.7814 C.3       1 UNK         0.0835 
      6 C6         28.2453   -3.2779    0.7456 C.3       12 UNK        -0.0855 
      7 S7         29.1896   -3.6900   -0.7735 S.3       12 UNK        -0.2931 
      8 C8         29.2127   -2.1943   -1.8227 C.3       12 UNK         0.0378 
      9 C9         29.8590   -2.4745   -3.1724 C.ar      12 UNK        -0.0802 
     10 C10        30.9717   -1.7414   -3.5935 C.ar      12 UNK        -0.0944 
     11 C11        31.5674   -2.0020   -4.8317 C.ar      12 UNK        -0.0787 
     12 C12        31.0401   -3.0035   -5.6549 C.ar      12 UNK        -0.0862 
     13 C13        29.9265   -3.7442   -5.2441 C.ar      12 UNK        -0.0733 
     14 C14        29.3376   -3.4670   -4.0074 C.ar      12 UNK        -0.0832 
     15 C15        29.3927   -4.8844   -6.1023 C.3       12 UNK         0.0240 
     16 S16        28.3501   -4.3168   -7.4821 S.3       12 UNK        -0.2522 
     17 C17        26.8785   -3.6537   -6.6251 C.3       12 UNK        -0.0967 
     18 CA         26.3492   -2.3599   -7.2883 C.3       5 UNK         0.0660 
     19 N          25.0452   -1.9639   -6.7634 N.am      5 UNK        -0.4015 
     20 C          24.1162   -1.3071   -7.4730 C.2       4 UNK         0.4946 
     21 O          24.2081   -1.0766   -8.6790 O.2       4 UNK        -0.5353 
     22 CA         22.8741   -0.8053   -6.7136 C.3       4 UNK         0.0277 
     23 CB         21.7344   -1.8324   -6.8092 C.3       4 UNK        -0.1981 
     24 N          23.1314   -0.4961   -5.3046 N.am      4 UNK        -0.4209 
     25 C          23.9601    0.4649   -4.8717 C.2       3 UNK         0.4942 
     26 O          24.5792    1.2251   -5.6149 O.2       3 UNK        -0.5208 
     27 CA         24.1766    0.5561   -3.3526 C.3       3 UNK         0.0250 
     28 CB         23.1112    1.4592   -2.7117 C.3       3 UNK        -0.1990 
     29 N          24.1999   -0.7400   -2.6638 N.am      3 UNK        -0.4232 
     30 C          25.0126   -1.7662   -2.9528 C.2       2 UNK         0.4993 
     31 O          25.8122   -1.7689   -3.8929 O.2       2 UNK        -0.5286 
     32 CA         24.9378   -2.9853   -2.0180 C.3       2 UNK         0.0209 
     33 CB         25.0661   -4.3025   -2.8041 C.3       2 UNK        -0.1931 
     34 N          26.0022   -2.9206   -1.0167 N.am      2 UNK        -0.4546 
     35 C          26.0786   -2.0244   -0.0234 C.2       1 UNK         0.5154 
     36 O          25.1707   -1.2296    0.2369 O.2       1 UNK        -0.5181 
     37 C          27.3306   -1.1826   -7.1610 C.2       5 UNK         0.5014 
     38 O          27.9491   -0.8166   -8.1586 O.2       5 UNK        -0.5248 
     39 N          27.4296   -0.5840   -5.9640 N.am      6 UNK        -0.4434 
     40 CA         28.3741    0.4941   -5.6434 C.3       6 UNK         0.0363 
     41 CB         28.2206    0.8895   -4.1677 C.3       6 UNK        -0.1936 
     42 C          28.2593    1.7418   -6.5403 C.2       6 UNK         0.5081 
     43 O          29.2725    2.3831   -6.8158 O.2       6 UNK        -0.5248 
     44 N          27.0382    2.0641   -6.9867 N.am      7 UNK        -0.4718 
     45 CA         26.7653    3.1596   -7.9197 C.3       7 UNK         0.0273 
     46 CB         25.2837    3.5533   -7.8018 C.3       7 UNK        -0.1935 
     47 C          27.1115    2.8320   -9.3854 C.2       7 UNK         0.5018 
     48 O          27.2227    3.7632  -10.1846 O.2       7 UNK        -0.5186 
     49 N          27.2376    1.5426   -9.7279 N.am      8 UNK        -0.4240 
     50 CA         27.4459    1.0598  -11.0952 C.3       8 UNK         0.0235 
     51 CB         26.4547   -0.0822  -11.3772 C.3       8 UNK        -0.2000 
     52 C          28.8863    0.5840  -11.3340 C.2       8 UNK         0.4941 
     53 O          29.4337    0.8422  -12.4074 O.2       8 UNK        -0.5273 
     54 N          29.4634   -0.1240  -10.3556 N.am      9 UNK        -0.4262 
     55 CA         30.8074   -0.6966  -10.4061 C.3       9 UNK         0.0264 
     56 CB         30.9594   -1.7008   -9.2510 C.3       9 UNK        -0.1955 
     57 C          31.9082    0.3734  -10.3358 C.2       9 UNK         0.5031 
     58 O          31.7198    1.4291   -9.7254 O.2       9 UNK        -0.5390 
     59 N          33.0686    0.0546  -10.9216 N.am      10 UNK        -0.4204 
     60 CA         34.2823    0.8715  -10.8798 C.3       10 UNK         0.0237 
     61 CB         35.1526    0.5389  -12.1069 C.3       10 UNK        -0.1985 
     62 C          35.0277    0.6643   -9.5481 C.2       10 UNK         0.4970 
     63 O          36.1117    0.0780   -9.5318 O.2       10 UNK        -0.4914 
     64 N          34.4111    1.1196   -8.4514 N.am      11 UNK        -0.4285 
     65 CA         34.9282    0.9991   -7.0780 C.3       11 UNK         0.1007 
     66 C          36.2068    1.8366   -6.7784 C.2       11 UNK         0.5703 
     67 N          36.5667    2.8210   -7.5941 N.am      11 UNK        -0.7361 
     68 O          36.8871    1.5828   -5.7870 O.2       11 UNK        -0.4986 
     69 C69        33.8330    1.2907   -6.0190 C.3       12 UNK        -0.0947 
     70 S70        32.3357    0.2664   -6.2028 S.3       12 UNK        -0.2240 
     71 C71        32.7970   -1.2145   -5.2572 C.3       12 UNK         0.0194 
     72 H72        25.2810   -1.2387    4.6664 H         1 UNK         0.0906 
     73 H73        26.7698   -1.9876    5.2498 H         1 UNK         0.0906 
     74 H74        26.8280   -0.4199    4.4421 H         1 UNK         0.0906 
     75 H75        27.5158   -0.5497    2.3328 H         1 UNK         0.3140 
     76 H76        27.9869   -1.1717    0.3222 H         1 UNK         0.1085 
     77 H77        28.9910   -3.2321    1.5412 H         1 UNK         0.0836 
     78 H78        27.6229   -4.1378    1.0006 H         1 UNK         0.0836 
     79 H79        28.2039   -1.8324   -2.0110 H         1 UNK         0.0731 
     80 H80        29.7447   -1.3987   -1.2987 H         1 UNK         0.0731 
     81 H81        31.3804   -0.9686   -2.9569 H         1 UNK         0.1312 
     82 H82        31.5030   -3.2157   -6.6088 H         1 UNK         0.1406 
     83 H83        28.4831   -4.0414   -3.6778 H         1 UNK         0.1631 
     84 H84        28.8260   -5.5918   -5.4947 H         1 UNK         0.0717 
     85 H85        30.2328   -5.4471   -6.5119 H         1 UNK         0.0717 
     86 H86        26.1081   -4.4257   -6.6563 H         1 UNK         0.0934 
     87 H87        27.0879   -3.4872   -5.5693 H         1 UNK         0.0934 
     88 H88        26.2370   -2.5717   -8.3544 H         1 UNK         0.0739 
     89 H89        24.9250   -2.0515   -5.7616 H         1 UNK         0.3093 
     90 H90        22.5475    0.1167   -7.1997 H         1 UNK         0.0818 
     91 H91        20.8188   -1.4540   -6.3542 H         1 UNK         0.0819 
     92 H92        21.5042   -2.0627   -7.8506 H         1 UNK         0.0819 
     93 H93        21.9925   -2.7713   -6.3178 H         1 UNK         0.0819 
     94 H94        22.6641   -1.0687   -4.6167 H         1 UNK         0.3041 
     95 H95        25.1498    1.0203   -3.1903 H         1 UNK         0.0784 
     96 H96        23.0890    2.4385   -3.1925 H         1 UNK         0.0793 
     97 H97        22.1117    1.0309   -2.7974 H         1 UNK         0.0793 
     98 H98        23.3162    1.6255   -1.6538 H         1 UNK         0.0793 
     99 H99        23.6236   -0.8125   -1.8365 H         1 UNK         0.3024 
    100 H100       23.9722   -2.9848   -1.5071 H         1 UNK         0.1171 
    101 H101       24.2949   -4.3755   -3.5721 H         1 UNK         0.0786 
    102 H102       24.9524   -5.1665   -2.1491 H         1 UNK         0.0786 
    103 H103       26.0316   -4.3880   -3.3038 H         1 UNK         0.0786 
    104 H104       26.8001   -3.5243   -1.1660 H         1 UNK         0.2977 
    105 H105       26.8756   -0.9488   -5.1919 H         1 UNK         0.3127 
    106 H106       29.3747    0.0810   -5.7832 H         1 UNK         0.0770 
    107 H107       27.2672    1.3831   -3.9840 H         1 UNK         0.0814 
    108 H108       29.0088    1.5821   -3.8699 H         1 UNK         0.0814 
    109 H109       28.2845    0.0232   -3.5125 H         1 UNK         0.0814 
    110 H110       26.2361    1.5388   -6.6479 H         1 UNK         0.2983 
    111 H111       27.3695    4.0220   -7.6293 H         1 UNK         0.0947 
    112 H112       25.0459    4.3917   -8.4578 H         1 UNK         0.0806 
    113 H113       25.0339    3.8568   -6.7849 H         1 UNK         0.0806 
    114 H114       24.6257    2.7268   -8.0743 H         1 UNK         0.0806 
    115 H115       27.2125    0.8384   -8.9976 H         1 UNK         0.3000 
    116 H116       27.2426    1.8584  -11.8120 H         1 UNK         0.0850 
    117 H117       26.5765   -0.4657  -12.3911 H         1 UNK         0.0810 
    118 H118       25.4231    0.2568  -11.2796 H         1 UNK         0.0810 
    119 H119       26.5934   -0.9190  -10.6910 H         1 UNK         0.0810 
    120 H120       28.9336   -0.3038   -9.5027 H         1 UNK         0.3040 
    121 H121       30.9069   -1.2349  -11.3510 H         1 UNK         0.0766 
    122 H122       31.9566   -2.1422   -9.2322 H         1 UNK         0.0812 
    123 H123       30.2434   -2.5180   -9.3405 H         1 UNK         0.0812 
    124 H124       30.7936   -1.2240   -8.2842 H         1 UNK         0.0812 
    125 H125       33.1538   -0.8483  -11.3667 H         1 UNK         0.3205 
    126 H126       34.0086    1.9271  -10.9444 H         1 UNK         0.0754 
    127 H127       36.0630    1.1400  -12.1137 H         1 UNK         0.0769 
    128 H128       34.6222    0.7476  -13.0363 H         1 UNK         0.0769 
    129 H129       35.4536   -0.5095  -12.1211 H         1 UNK         0.0769 
    130 H130       33.4888    1.5286   -8.5539 H         1 UNK         0.2981 
    131 H131       35.2267   -0.0432   -6.9509 H         1 UNK         0.0541 
    132 H132       37.3984    3.3522   -7.3900 H         1 UNK         0.3459 
    133 H133       36.0137    3.0396   -8.4068 H         1 UNK         0.3459 
    134 H134       33.5227    2.3352   -6.0836 H         1 UNK         0.0612 
    135 H135       34.2237    1.1583   -5.0084 H         1 UNK         0.0612 
    136 H136       33.4565   -1.8362   -5.8645 H         1 UNK         0.0624 
    137 H137       33.3699   -0.9280   -4.3741 H         1 UNK         0.0624 
@<TRIPOS>BOND
     1    1    2 1    
     2    1   72 1    
     3    1   73 1    
     4    1   74 1    
     5    2    3 2    
     6    2    4 am   BACKBONE|DICT|INTERRES
     7    4    5 1    
     8    4   75 1    
     9    5    6 1    
    10    5   35 1    
    11    5   76 1    
    12    6    7 1    
    13    6   77 1    
    14    6   78 1    
    15    7    8 1    
    16    8    9 1    
    17    8   79 1    
    18    8   80 1    
    19    9   10 ar   
    20    9   14 ar   
    21   10   11 ar   
    22   10   81 1    
    23   11   12 ar   
    24   11   71 1    
    25   12   13 ar   
    26   12   82 1    
    27   13   14 ar   
    28   13   15 1    
    29   14   83 1    
    30   15   16 1    
    31   15   84 1    
    32   15   85 1    
    33   16   17 1    
    34   17   18 1    
    35   17   86 1    
    36   17   87 1    
    37   18   19 1    
    38   18   37 1    
    39   18   88 1    
    40   19   20 am   BACKBONE|DICT|INTERRES
    41   19   89 1    
    42   20   21 2    
    43   20   22 1    
    44   22   23 1    
    45   22   24 1    
    46   22   90 1    
    47   23   91 1    
    48   23   92 1    
    49   23   93 1    
    50   24   25 am   BACKBONE|DICT|INTERRES
    51   24   94 1    
    52   25   26 2    
    53   25   27 1    
    54   27   28 1    
    55   27   29 1    
    56   27   95 1    
    57   28   96 1    
    58   28   97 1    
    59   28   98 1    
    60   29   30 am   BACKBONE|DICT|INTERRES
    61   29   99 1    
    62   30   31 2    
    63   30   32 1    
    64   32   33 1    
    65   32   34 1    
    66   32  100 1    
    67   33  101 1    
    68   33  102 1    
    69   33  103 1    
    70   34   35 am   BACKBONE|DICT|INTERRES
    71   34  104 1    
    72   35   36 2    
    73   37   38 2    
    74   37   39 am   BACKBONE|DICT|INTERRES
    75   39   40 1    
    76   39  105 1    
    77   40   41 1    
    78   40   42 1    
    79   40  106 1    
    80   41  107 1    
    81   41  108 1    
    82   41  109 1    
    83   42   43 2    
    84   42   44 am   BACKBONE|DICT|INTERRES
    85   44   45 1    
    86   44  110 1    
    87   45   46 1    
    88   45   47 1    
    89   45  111 1    
    90   46  112 1    
    91   46  113 1    
    92   46  114 1    
    93   47   48 2    
    94   47   49 am   BACKBONE|DICT|INTERRES
    95   49   50 1    
    96   49  115 1    
    97   50   51 1    
    98   50   52 1    
    99   50  116 1    
   100   51  117 1    
   101   51  118 1    
   102   51  119 1    
   103   52   53 2    
   104   52   54 am   BACKBONE|DICT|INTERRES
   105   54   55 1    
   106   54  120 1    
   107   55   56 1    
   108   55   57 1    
   109   55  121 1    
   110   56  122 1    
   111   56  123 1    
   112   56  124 1    
   113   57   58 2    
   114   57   59 am   BACKBONE|DICT|INTERRES
   115   59   60 1    
   116   59  125 1    
   117   60   61 1    
   118   60   62 1    
   119   60  126 1    
   120   61  127 1    
   121   61  128 1    
   122   61  129 1    
   123   62   63 2    
   124   62   64 am   BACKBONE|DICT|INTERRES
   125   64   65 1    
   126   64  130 1    
   127   65   66 1    
   128   65   69 1    
   129   65  131 1    
   130   66   67 am   BACKBONE|DICT|INTERRES
   131   66   68 2    
   132   67  132 1    
   133   67  133 1    
   134   69   70 1    
   135   69  134 1    
   136   69  135 1    
   137   70   71 1    
   138   71  136 1    
   139   71  137 1    
@<TRIPOS>SUBSTRUCTURE
     1 UNK         1 GROUP             0       ****    0 ROOT    
