@<TRIPOS>MOLECULE
3R137
137   139    1
SMALL
USER_CHARGES


@<TRIPOS>ATOM
      1 CA         25.1212   -1.5989   -0.0207 C.3       0 UNK        -0.2020 
      2 C          25.8521   -2.0584   -1.2721 C.2       0 UNK         0.4855 
      3 O          25.8449   -1.3483   -2.2783 O.2       0 UNK        -0.5197 
      4 N          26.4799   -3.2421   -1.2245 N.am      1 UNK        -0.4892 
      5 CA         27.2179   -3.8423   -2.3452 C.3       1 UNK         0.0835 
      6 C6         28.0978   -5.0243   -1.8686 C.3       12 UNK        -0.0855 
      7 S7         29.4087   -5.4831   -3.0560 S.3       12 UNK        -0.2931 
      8 C8         30.8882   -4.6875   -2.3500 C.3       12 UNK         0.0378 
      9 C9         30.9431   -3.1978   -2.6597 C.ar      12 UNK        -0.0802 
     10 C10        31.3802   -2.7591   -3.9140 C.ar      12 UNK        -0.0944 
     11 C11        31.4573   -1.3929   -4.1989 C.ar      12 UNK        -0.0787 
     12 C12        31.0988   -0.4623   -3.2206 C.ar      12 UNK        -0.0862 
     13 C13        30.6521   -0.8862   -1.9668 C.ar      12 UNK        -0.0733 
     14 C14        30.5813   -2.2565   -1.6905 C.ar      12 UNK        -0.0832 
     15 C15        30.2601    0.1289   -0.9021 C.3       12 UNK         0.0240 
     16 S16        28.4734    0.0745   -0.5635 S.3       12 UNK        -0.2522 
     17 C17        27.7849    1.5424   -1.4047 C.3       12 UNK        -0.0967 
     18 CA         28.1168    1.6943   -2.9110 C.3       5 UNK         0.0660 
     19 N          27.6706    0.5589   -3.7337 N.am      5 UNK        -0.4015 
     20 C          28.0359    0.4079   -5.0183 C.2       4 UNK         0.4946 
     21 O          28.8354    1.1576   -5.5758 O.2       4 UNK        -0.5353 
     22 CA         27.3667   -0.6905   -5.8630 C.3       4 UNK         0.0277 
     23 CB         28.3045   -1.8947   -6.0132 C.3       4 UNK        -0.1981 
     24 N          26.0456   -1.1171   -5.3842 N.am      4 UNK        -0.4209 
     25 C          24.9783   -0.3067   -5.2926 C.2       3 UNK         0.4942 
     26 O          25.0279    0.8910   -5.5773 O.2       3 UNK        -0.5208 
     27 CA         23.6522   -0.8650   -4.7454 C.3       3 UNK         0.0250 
     28 CB         22.4742   -0.6002   -5.7060 C.3       3 UNK        -0.1990 
     29 N          23.7125   -2.2600   -4.2924 N.am      3 UNK        -0.4232 
     30 C          23.6944   -3.3941   -5.0090 C.2       2 UNK         0.4993 
     31 O          23.5612   -3.4455   -6.2321 O.2       2 UNK        -0.5286 
     32 CA         23.9108   -4.6866   -4.1896 C.3       2 UNK         0.0209 
     33 CB         24.1035   -5.9409   -5.0697 C.3       2 UNK        -0.1931 
     34 N          25.0142   -4.5414   -3.2244 N.am      2 UNK        -0.4546 
     35 C          26.2870   -4.2247   -3.5199 C.2       1 UNK         0.5154 
     36 O          26.7072   -4.1461   -4.6717 O.2       1 UNK        -0.5181 
     37 C          27.6013    3.0584   -3.4339 C.2       5 UNK         0.5014 
     38 O          28.2270    4.0773   -3.1359 O.2       5 UNK        -0.5248 
     39 N          26.4966    3.0661   -4.1963 N.am      6 UNK        -0.4434 
     40 CA         25.9438    4.2526   -4.8512 C.3       6 UNK         0.0363 
     41 CB         24.4303    4.3191   -4.5853 C.3       6 UNK        -0.1936 
     42 C          26.2215    4.2370   -6.3629 C.2       6 UNK         0.5081 
     43 O          26.6045    5.2668   -6.9179 O.2       6 UNK        -0.5248 
     44 N          26.0090    3.0820   -7.0079 N.am      7 UNK        -0.4718 
     45 CA         26.0772    2.9088   -8.4623 C.3       7 UNK         0.0273 
     46 CB         25.2142    1.6947   -8.8489 C.3       7 UNK        -0.1935 
     47 C          27.5003    2.7455   -9.0254 C.2       7 UNK         0.5018 
     48 O          27.6557    2.7715  -10.2477 O.2       7 UNK        -0.5186 
     49 N          28.4975    2.5337   -8.1547 N.am      8 UNK        -0.4240 
     50 CA         29.8922    2.1700   -8.4364 C.3       8 UNK         0.0235 
     51 CB         30.6194    3.1940   -9.3313 C.3       8 UNK        -0.2000 
     52 C          30.0136    0.7361   -8.9702 C.2       8 UNK         0.4941 
     53 O          30.6218   -0.0970   -8.3024 O.2       8 UNK        -0.5273 
     54 N          29.4144    0.4610  -10.1380 N.am      9 UNK        -0.4262 
     55 CA         29.3214   -0.8458  -10.8010 C.3       9 UNK         0.0264 
     56 CB         28.2391   -1.7026  -10.1051 C.3       9 UNK        -0.1955 
     57 C          30.6939   -1.5426  -10.9130 C.2       9 UNK         0.5031 
     58 O          31.5228   -1.1115  -11.7164 O.2       9 UNK        -0.5390 
     59 N          30.9274   -2.5631  -10.0752 N.am      10 UNK        -0.4204 
     60 CA         32.1886   -3.2981   -9.9406 C.3       10 UNK         0.0237 
     61 CB         31.9897   -4.4523   -8.9441 C.3       10 UNK        -0.1985 
     62 C          33.3922   -2.4324   -9.5183 C.2       10 UNK         0.4970 
     63 O          34.5217   -2.7823   -9.8635 O.2       10 UNK        -0.4914 
     64 N          33.1422   -1.3281   -8.8023 N.am      11 UNK        -0.4285 
     65 CA         34.1527   -0.3191   -8.4507 C.3       11 UNK         0.1007 
     66 C          34.4608    0.6807   -9.6058 C.2       11 UNK         0.5703 
     67 N          33.7624    0.6513  -10.7365 N.am      11 UNK        -0.7361 
     68 O          35.3684    1.4991   -9.4782 O.2       11 UNK        -0.4986 
     69 C69        33.7910    0.4353   -7.1426 C.3       12 UNK        -0.0947 
     70 S70        33.6838   -0.6453   -5.6738 S.3       12 UNK        -0.2240 
     71 C71        31.8895   -0.9112   -5.5728 C.3       12 UNK         0.0194 
     72 H72        24.0589   -1.4774   -0.2297 H         1 UNK         0.0906 
     73 H73        25.2294   -2.3077    0.7998 H         1 UNK         0.0906 
     74 H74        25.5150   -0.6376    0.3083 H         1 UNK         0.0906 
     75 H75        26.4607   -3.7781   -0.3680 H         1 UNK         0.3140 
     76 H76        27.8858   -3.0642   -2.7232 H         1 UNK         0.1085 
     77 H77        27.4850   -5.9053   -1.6681 H         1 UNK         0.0836 
     78 H78        28.5721   -4.7755   -0.9181 H         1 UNK         0.0836 
     79 H79        31.7729   -5.1702   -2.7679 H         1 UNK         0.0731 
     80 H80        30.9317   -4.8658   -1.2745 H         1 UNK         0.0731 
     81 H81        31.6554   -3.4818   -4.6701 H         1 UNK         0.1312 
     82 H82        31.1618    0.5931   -3.4459 H         1 UNK         0.1406 
     83 H83        30.2399   -2.5866   -0.7186 H         1 UNK         0.1631 
     84 H84        30.5652    1.1395   -1.1765 H         1 UNK         0.0717 
     85 H85        30.7941   -0.1061    0.0196 H         1 UNK         0.0717 
     86 H86        26.7024    1.5181   -1.2651 H         1 UNK         0.0934 
     87 H87        28.1356    2.4162   -0.8512 H         1 UNK         0.0934 
     88 H88        29.2012    1.7453   -3.0053 H         1 UNK         0.0739 
     89 H89        27.0232   -0.0984   -3.3059 H         1 UNK         0.3093 
     90 H90        27.2177   -0.2706   -6.8597 H         1 UNK         0.0818 
     91 H91        27.8545   -2.6825   -6.6169 H         1 UNK         0.0819 
     92 H92        28.5787   -2.3177   -5.0464 H         1 UNK         0.0819 
     93 H93        29.2278   -1.5996   -6.5101 H         1 UNK         0.0819 
     94 H94        25.9518   -2.0885   -5.1148 H         1 UNK         0.3041 
     95 H95        23.4573   -0.2883   -3.8399 H         1 UNK         0.0784 
     96 H96        22.3435    0.4698   -5.8729 H         1 UNK         0.0793 
     97 H97        22.6333   -1.0570   -6.6830 H         1 UNK         0.0793 
     98 H98        21.5364   -0.9813   -5.3022 H         1 UNK         0.0793 
     99 H99        23.8976   -2.3535   -3.3029 H         1 UNK         0.3024 
    100 H100       22.9988   -4.8326   -3.6080 H         1 UNK         0.1171 
    101 H101       23.2306   -6.1107   -5.7012 H         1 UNK         0.0786 
    102 H102       24.9662   -5.8484   -5.7301 H         1 UNK         0.0786 
    103 H103       24.2415   -6.8346   -4.4614 H         1 UNK         0.0786 
    104 H104       24.7584   -4.5781   -2.2471 H         1 UNK         0.2977 
    105 H105       26.0538    2.1828   -4.4283 H         1 UNK         0.3127 
    106 H106       26.3936    5.1599   -4.4424 H         1 UNK         0.0770 
    107 H107       23.9105    3.4380   -4.9643 H         1 UNK         0.0814 
    108 H108       23.9877    5.1920   -5.0671 H         1 UNK         0.0814 
    109 H109       24.2206    4.3971   -3.5185 H         1 UNK         0.0814 
    110 H110       25.6637    2.2821   -6.4785 H         1 UNK         0.2983 
    111 H111       25.6475    3.7943   -8.9360 H         1 UNK         0.0947 
    112 H112       25.1803    1.5649   -9.9315 H         1 UNK         0.0806 
    113 H113       24.1861    1.8128   -8.5059 H         1 UNK         0.0806 
    114 H114       25.6037    0.7698   -8.4225 H         1 UNK         0.0806 
    115 H115       28.2494    2.4606   -7.1742 H         1 UNK         0.3000 
    116 H116       30.3970    2.1831   -7.4690 H         1 UNK         0.0850 
    117 H117       31.6757    2.9383   -9.4259 H         1 UNK         0.0810 
    118 H118       30.5652    4.1964   -8.9068 H         1 UNK         0.0810 
    119 H119       30.2096    3.2357  -10.3403 H         1 UNK         0.0810 
    120 H120       28.9186    1.2270  -10.5837 H         1 UNK         0.3040 
    121 H121       28.9893   -0.6568  -11.8229 H         1 UNK         0.0766 
    122 H122       28.1404   -2.6800  -10.5795 H         1 UNK         0.0812 
    123 H123       27.2638   -1.2195  -10.1687 H         1 UNK         0.0812 
    124 H124       28.4514   -1.8610   -9.0476 H         1 UNK         0.0812 
    125 H125       30.1944   -2.8073   -9.4259 H         1 UNK         0.3205 
    126 H126       32.4235   -3.7235  -10.9184 H         1 UNK         0.0754 
    127 H127       31.7252   -4.0866   -7.9508 H         1 UNK         0.0769 
    128 H128       32.9023   -5.0416   -8.8415 H         1 UNK         0.0769 
    129 H129       31.2038   -5.1322   -9.2737 H         1 UNK         0.0769 
    130 H130       32.1802   -1.0734   -8.5892 H         1 UNK         0.2981 
    131 H131       35.0930   -0.8408   -8.2631 H         1 UNK         0.0541 
    132 H132       33.0245   -0.0270  -10.8882 H         1 UNK         0.3459 
    133 H133       33.9927    1.3056  -11.4668 H         1 UNK         0.3459 
    134 H134       32.8623    0.9943   -7.2645 H         1 UNK         0.0612 
    135 H135       34.5544    1.1819   -6.9167 H         1 UNK         0.0612 
    136 H136       31.5971   -1.6348   -6.3341 H         1 UNK         0.0624 
    137 H137       31.3657    0.0172   -5.8030 H         1 UNK         0.0624 
@<TRIPOS>BOND
     1    1    2 1    
     2    1   72 1    
     3    1   73 1    
     4    1   74 1    
     5    2    3 2    
     6    2    4 am   BACKBONE|DICT|INTERRES
     7    4    5 1    
     8    4   75 1    
     9    5    6 1    
    10    5   35 1    
    11    5   76 1    
    12    6    7 1    
    13    6   77 1    
    14    6   78 1    
    15    7    8 1    
    16    8    9 1    
    17    8   79 1    
    18    8   80 1    
    19    9   10 ar   
    20    9   14 ar   
    21   10   11 ar   
    22   10   81 1    
    23   11   12 ar   
    24   11   71 1    
    25   12   13 ar   
    26   12   82 1    
    27   13   14 ar   
    28   13   15 1    
    29   14   83 1    
    30   15   16 1    
    31   15   84 1    
    32   15   85 1    
    33   16   17 1    
    34   17   18 1    
    35   17   86 1    
    36   17   87 1    
    37   18   19 1    
    38   18   37 1    
    39   18   88 1    
    40   19   20 am   BACKBONE|DICT|INTERRES
    41   19   89 1    
    42   20   21 2    
    43   20   22 1    
    44   22   23 1    
    45   22   24 1    
    46   22   90 1    
    47   23   91 1    
    48   23   92 1    
    49   23   93 1    
    50   24   25 am   BACKBONE|DICT|INTERRES
    51   24   94 1    
    52   25   26 2    
    53   25   27 1    
    54   27   28 1    
    55   27   29 1    
    56   27   95 1    
    57   28   96 1    
    58   28   97 1    
    59   28   98 1    
    60   29   30 am   BACKBONE|DICT|INTERRES
    61   29   99 1    
    62   30   31 2    
    63   30   32 1    
    64   32   33 1    
    65   32   34 1    
    66   32  100 1    
    67   33  101 1    
    68   33  102 1    
    69   33  103 1    
    70   34   35 am   BACKBONE|DICT|INTERRES
    71   34  104 1    
    72   35   36 2    
    73   37   38 2    
    74   37   39 am   BACKBONE|DICT|INTERRES
    75   39   40 1    
    76   39  105 1    
    77   40   41 1    
    78   40   42 1    
    79   40  106 1    
    80   41  107 1    
    81   41  108 1    
    82   41  109 1    
    83   42   43 2    
    84   42   44 am   BACKBONE|DICT|INTERRES
    85   44   45 1    
    86   44  110 1    
    87   45   46 1    
    88   45   47 1    
    89   45  111 1    
    90   46  112 1    
    91   46  113 1    
    92   46  114 1    
    93   47   48 2    
    94   47   49 am   BACKBONE|DICT|INTERRES
    95   49   50 1    
    96   49  115 1    
    97   50   51 1    
    98   50   52 1    
    99   50  116 1    
   100   51  117 1    
   101   51  118 1    
   102   51  119 1    
   103   52   53 2    
   104   52   54 am   BACKBONE|DICT|INTERRES
   105   54   55 1    
   106   54  120 1    
   107   55   56 1    
   108   55   57 1    
   109   55  121 1    
   110   56  122 1    
   111   56  123 1    
   112   56  124 1    
   113   57   58 2    
   114   57   59 am   BACKBONE|DICT|INTERRES
   115   59   60 1    
   116   59  125 1    
   117   60   61 1    
   118   60   62 1    
   119   60  126 1    
   120   61  127 1    
   121   61  128 1    
   122   61  129 1    
   123   62   63 2    
   124   62   64 am   BACKBONE|DICT|INTERRES
   125   64   65 1    
   126   64  130 1    
   127   65   66 1    
   128   65   69 1    
   129   65  131 1    
   130   66   67 am   BACKBONE|DICT|INTERRES
   131   66   68 2    
   132   67  132 1    
   133   67  133 1    
   134   69   70 1    
   135   69  134 1    
   136   69  135 1    
   137   70   71 1    
   138   71  136 1    
   139   71  137 1    
@<TRIPOS>SUBSTRUCTURE
     1 UNK         1 GROUP             0       ****    0 ROOT    
