@<TRIPOS>MOLECULE
3R137
137   139    1
SMALL
USER_CHARGES


@<TRIPOS>ATOM
      1 CA         25.5896   -5.6038   -4.2962 C.3       0 UNK        -0.2020 
      2 C          25.9277   -4.3969   -3.4354 C.2       0 UNK         0.4855 
      3 O          25.8444   -3.2658   -3.9136 O.2       0 UNK        -0.5197 
      4 N          26.3021   -4.6252   -2.1674 N.am      1 UNK        -0.4892 
      5 CA         26.6608   -3.6007   -1.1689 C.3       1 UNK         0.0835 
      6 C6         27.8528   -2.7103   -1.6325 C.3       12 UNK        -0.0855 
      7 S7         29.0782   -2.4002   -0.3143 S.3       12 UNK        -0.2931 
      8 C8         30.3741   -3.6302   -0.6848 C.3       12 UNK         0.0378 
      9 C9         31.0143   -3.3994   -2.0470 C.ar      12 UNK        -0.0802 
     10 C10        31.9098   -2.3424   -2.2378 C.ar      12 UNK        -0.0944 
     11 C11        32.4682   -2.1086   -3.4979 C.ar      12 UNK        -0.0787 
     12 C12        32.1317   -2.9429   -4.5682 C.ar      12 UNK        -0.0862 
     13 C13        31.2251   -3.9914   -4.3923 C.ar      12 UNK        -0.0733 
     14 C14        30.6878   -4.2290   -3.1246 C.ar      12 UNK        -0.0832 
     15 C15        30.7867   -4.8385   -5.5789 C.3       12 UNK         0.0240 
     16 S16        29.9197   -3.8577   -6.8496 S.3       12 UNK        -0.2522 
     17 C17        28.5849   -3.0607   -5.8962 C.3       12 UNK        -0.0967 
     18 CA         27.8359   -1.9741   -6.7084 C.3       5 UNK         0.0660 
     19 N          26.4485   -1.8293   -6.2473 N.am      5 UNK        -0.4015 
     20 C          25.4927   -1.1877   -6.9311 C.2       4 UNK         0.4946 
     21 O          25.6897   -0.6206   -8.0049 O.2       4 UNK        -0.5353 
     22 CA         24.0812   -1.1525   -6.3193 C.3       4 UNK         0.0277 
     23 CB         23.3861   -2.5139   -6.4838 C.3       4 UNK        -0.1981 
     24 N          23.9952   -0.7289   -4.9168 N.am      4 UNK        -0.4209 
     25 C          24.5780    0.3372   -4.3544 C.2       3 UNK         0.4942 
     26 O          25.4144    1.0364   -4.9221 O.2       3 UNK        -0.5208 
     27 CA         24.1616    0.7225   -2.9222 C.3       3 UNK         0.0250 
     28 CB         22.9848    1.7163   -2.9504 C.3       3 UNK        -0.1990 
     29 N          23.8926   -0.3960   -2.0083 N.am      3 UNK        -0.4232 
     30 C          22.9326   -1.3304   -2.0476 C.2       2 UNK         0.4993 
     31 O          22.0790   -1.4014   -2.9336 O.2       2 UNK        -0.5286 
     32 CA         22.9918   -2.4019   -0.9393 C.3       2 UNK         0.0209 
     33 CB         21.7891   -3.3634   -0.9785 C.3       2 UNK        -0.1931 
     34 N          24.2264   -3.1826   -1.0495 N.am      2 UNK        -0.4546 
     35 C          25.4498   -2.7546   -0.7050 C.2       1 UNK         0.5154 
     36 O          25.6314   -1.7042   -0.0854 O.2       1 UNK        -0.5181 
     37 C          28.5963   -0.6262   -6.7297 C.2       5 UNK         0.5014 
     38 O          29.3957   -0.3812   -7.6385 O.2       5 UNK        -0.5248 
     39 N          28.3019    0.2443   -5.7528 N.am      6 UNK        -0.4434 
     40 CA         28.8414    1.6015   -5.6725 C.3       6 UNK         0.0363 
     41 CB         28.6808    2.1452   -4.2444 C.3       6 UNK        -0.1936 
     42 C          28.1844    2.5335   -6.7024 C.2       6 UNK         0.5081 
     43 O          28.8891    3.3097   -7.3450 O.2       6 UNK        -0.5248 
     44 N          26.8613    2.4116   -6.8826 N.am      7 UNK        -0.4718 
     45 CA         26.0734    3.1321   -7.8892 C.3       7 UNK         0.0273 
     46 CB         24.5777    2.8647   -7.6588 C.3       7 UNK        -0.1935 
     47 C          26.4761    2.7805   -9.3323 C.2       7 UNK         0.5018 
     48 O          26.4880    3.6639  -10.1899 O.2       7 UNK        -0.5186 
     49 N          26.8495    1.5134   -9.5609 N.am      8 UNK        -0.4240 
     50 CA         27.4494    1.0162  -10.8026 C.3       8 UNK         0.0235 
     51 CB         27.3866   -0.5208  -10.8064 C.3       8 UNK        -0.2000 
     52 C          28.8985    1.4933  -11.0322 C.2       8 UNK         0.4941 
     53 O          29.4248    1.2716  -12.1235 O.2       8 UNK        -0.5273 
     54 N          29.5161    2.1235  -10.0197 N.am      9 UNK        -0.4262 
     55 CA         30.8801    2.6599   -9.9946 C.3       9 UNK         0.0264 
     56 CB         31.0325    3.8291  -10.9914 C.3       9 UNK        -0.1955 
     57 C          31.9605    1.5758  -10.1593 C.2       9 UNK         0.5031 
     58 O          32.9790    1.8206  -10.8096 O.2       9 UNK        -0.5390 
     59 N          31.7328    0.3978   -9.5590 N.am      10 UNK        -0.4204 
     60 CA         32.6918   -0.7108   -9.5631 C.3       10 UNK         0.0237 
     61 CB         31.9618   -2.0074   -9.1906 C.3       10 UNK        -0.1985 
     62 C          33.8787   -0.4803   -8.6107 C.2       10 UNK         0.4970 
     63 O          34.9487   -1.0469   -8.8370 O.2       10 UNK        -0.4914 
     64 N          33.6628    0.3189   -7.5585 N.am      11 UNK        -0.4285 
     65 CA         34.6549    0.6550   -6.5296 C.3       11 UNK         0.1007 
     66 C          35.8131    1.5330   -7.0752 C.2       11 UNK         0.5703 
     67 N          37.0297    1.3304   -6.5874 N.am      11 UNK        -0.7361 
     68 O          35.6112    2.4229   -7.8995 O.2       11 UNK        -0.4986 
     69 C69        33.9972    1.3213   -5.2900 C.3       12 UNK        -0.0947 
     70 S70        32.5722    0.3889   -4.6373 S.3       12 UNK        -0.2240 
     71 C71        33.4123   -0.9406   -3.7238 C.3       12 UNK         0.0194 
     72 H72        26.2167   -5.6199   -5.1868 H         1 UNK         0.0906 
     73 H73        24.5488   -5.5553   -4.6149 H         1 UNK         0.0906 
     74 H74        25.7378   -6.5417   -3.7613 H         1 UNK         0.0906 
     75 H75        26.3436   -5.5791   -1.8328 H         1 UNK         0.3140 
     76 H76        26.9705   -4.1638   -0.2869 H         1 UNK         0.1085 
     77 H77        27.5106   -1.7488   -2.0212 H         1 UNK         0.0836 
     78 H78        28.3580   -3.1673   -2.4796 H         1 UNK         0.0836 
     79 H79        31.1421   -3.5782    0.0883 H         1 UNK         0.0731 
     80 H80        29.9455   -4.6318   -0.6215 H         1 UNK         0.0731 
     81 H81        32.1531   -1.6909   -1.4093 H         1 UNK         0.1312 
     82 H82        32.5426   -2.7486   -5.5499 H         1 UNK         0.1406 
     83 H83        29.9832   -5.0376   -2.9836 H         1 UNK         0.1631 
     84 H84        30.1340   -5.6520   -5.2586 H         1 UNK         0.0717 
     85 H85        31.6634   -5.3056   -6.0294 H         1 UNK         0.0717 
     86 H86        27.9006   -3.8605   -5.6152 H         1 UNK         0.0934 
     87 H87        28.9672   -2.6502   -4.9601 H         1 UNK         0.0934 
     88 H88        27.7739   -2.3134   -7.7450 H         1 UNK         0.0739 
     89 H89        26.2007   -2.2778   -5.3647 H         1 UNK         0.3093 
     90 H90        23.5105   -0.4197   -6.8926 H         1 UNK         0.0818 
     91 H91        23.4182   -2.8484   -7.5217 H         1 UNK         0.0819 
     92 H92        23.8605   -3.2850   -5.8763 H         1 UNK         0.0819 
     93 H93        22.3364   -2.4603   -6.1942 H         1 UNK         0.0819 
     94 H94        23.3037   -1.2065   -4.3446 H         1 UNK         0.3041 
     95 H95        25.0170    1.2449   -2.4905 H         1 UNK         0.0784 
     96 H96        23.2285    2.5899   -3.5568 H         1 UNK         0.0793 
     97 H97        22.0842    1.2704   -3.3738 H         1 UNK         0.0793 
     98 H98        22.7437    2.0741   -1.9495 H         1 UNK         0.0793 
     99 H99        24.5779   -0.5092   -1.2660 H         1 UNK         0.3024 
    100 H100       22.9781   -1.8829    0.0222 H         1 UNK         0.1171 
    101 H101       21.7482   -3.9243   -1.9132 H         1 UNK         0.0786 
    102 H102       21.8280   -4.0805   -0.1583 H         1 UNK         0.0786 
    103 H103       20.8499   -2.8165   -0.8848 H         1 UNK         0.0786 
    104 H104       24.1717   -4.0365   -1.5854 H         1 UNK         0.2977 
    105 H105       27.5705    0.0074   -5.0967 H         1 UNK         0.3127 
    106 H106       29.9097    1.5594   -5.8963 H         1 UNK         0.0770 
    107 H107       29.1051    3.1466   -4.1617 H         1 UNK         0.0814 
    108 H108       27.6339    2.2096   -3.9466 H         1 UNK         0.0814 
    109 H109       29.1988    1.5141   -3.5218 H         1 UNK         0.0814 
    110 H110       26.3468    1.7836   -6.2657 H         1 UNK         0.2983 
    111 H111       26.2566    4.1995   -7.7488 H         1 UNK         0.0947 
    112 H112       24.3352    1.8082   -7.7755 H         1 UNK         0.0806 
    113 H113       23.9669    3.4213   -8.3707 H         1 UNK         0.0806 
    114 H114       24.2700    3.1688   -6.6581 H         1 UNK         0.0806 
    115 H115       26.7044    0.8290   -8.8225 H         1 UNK         0.3000 
    116 H116       26.8523    1.3859  -11.6387 H         1 UNK         0.0850 
    117 H117       27.7886   -0.9293  -11.7345 H         1 UNK         0.0810 
    118 H118       26.3600   -0.8762  -10.7153 H         1 UNK         0.0810 
    119 H119       27.9629   -0.9481   -9.9850 H         1 UNK         0.0810 
    120 H120       28.9948    2.2662   -9.1618 H         1 UNK         0.3040 
    121 H121       31.0242    3.0688   -8.9938 H         1 UNK         0.0766 
    122 H122       30.9663    3.4917  -12.0262 H         1 UNK         0.0812 
    123 H123       31.9986    4.3211  -10.8720 H         1 UNK         0.0812 
    124 H124       30.2636    4.5856  -10.8345 H         1 UNK         0.0812 
    125 H125       30.8703    0.2572   -9.0401 H         1 UNK         0.3205 
    126 H126       33.0903   -0.8221  -10.5739 H         1 UNK         0.0754 
    127 H127       32.6293   -2.8678   -9.2526 H         1 UNK         0.0769 
    128 H128       31.1173   -2.1991   -9.8530 H         1 UNK         0.0769 
    129 H129       31.5845   -1.9600   -8.1696 H         1 UNK         0.0769 
    130 H130       32.7534    0.7390   -7.4479 H         1 UNK         0.2981 
    131 H131       35.0936   -0.2906   -6.2069 H         1 UNK         0.0541 
    132 H132       37.2056    0.6133   -5.9010 H         1 UNK         0.3459 
    133 H133       37.7905    1.9031   -6.9183 H         1 UNK         0.3459 
    134 H134       33.6437    2.3232   -5.5413 H         1 UNK         0.0612 
    135 H135       34.7273    1.4480   -4.4884 H         1 UNK         0.0612 
    136 H136       34.2812   -1.2918   -4.2804 H         1 UNK         0.0624 
    137 H137       33.7860   -0.5472   -2.7773 H         1 UNK         0.0624 
@<TRIPOS>BOND
     1    1    2 1    
     2    1   72 1    
     3    1   73 1    
     4    1   74 1    
     5    2    3 2    
     6    2    4 am   BACKBONE|DICT|INTERRES
     7    4    5 1    
     8    4   75 1    
     9    5    6 1    
    10    5   35 1    
    11    5   76 1    
    12    6    7 1    
    13    6   77 1    
    14    6   78 1    
    15    7    8 1    
    16    8    9 1    
    17    8   79 1    
    18    8   80 1    
    19    9   10 ar   
    20    9   14 ar   
    21   10   11 ar   
    22   10   81 1    
    23   11   12 ar   
    24   11   71 1    
    25   12   13 ar   
    26   12   82 1    
    27   13   14 ar   
    28   13   15 1    
    29   14   83 1    
    30   15   16 1    
    31   15   84 1    
    32   15   85 1    
    33   16   17 1    
    34   17   18 1    
    35   17   86 1    
    36   17   87 1    
    37   18   19 1    
    38   18   37 1    
    39   18   88 1    
    40   19   20 am   BACKBONE|DICT|INTERRES
    41   19   89 1    
    42   20   21 2    
    43   20   22 1    
    44   22   23 1    
    45   22   24 1    
    46   22   90 1    
    47   23   91 1    
    48   23   92 1    
    49   23   93 1    
    50   24   25 am   BACKBONE|DICT|INTERRES
    51   24   94 1    
    52   25   26 2    
    53   25   27 1    
    54   27   28 1    
    55   27   29 1    
    56   27   95 1    
    57   28   96 1    
    58   28   97 1    
    59   28   98 1    
    60   29   30 am   BACKBONE|DICT|INTERRES
    61   29   99 1    
    62   30   31 2    
    63   30   32 1    
    64   32   33 1    
    65   32   34 1    
    66   32  100 1    
    67   33  101 1    
    68   33  102 1    
    69   33  103 1    
    70   34   35 am   BACKBONE|DICT|INTERRES
    71   34  104 1    
    72   35   36 2    
    73   37   38 2    
    74   37   39 am   BACKBONE|DICT|INTERRES
    75   39   40 1    
    76   39  105 1    
    77   40   41 1    
    78   40   42 1    
    79   40  106 1    
    80   41  107 1    
    81   41  108 1    
    82   41  109 1    
    83   42   43 2    
    84   42   44 am   BACKBONE|DICT|INTERRES
    85   44   45 1    
    86   44  110 1    
    87   45   46 1    
    88   45   47 1    
    89   45  111 1    
    90   46  112 1    
    91   46  113 1    
    92   46  114 1    
    93   47   48 2    
    94   47   49 am   BACKBONE|DICT|INTERRES
    95   49   50 1    
    96   49  115 1    
    97   50   51 1    
    98   50   52 1    
    99   50  116 1    
   100   51  117 1    
   101   51  118 1    
   102   51  119 1    
   103   52   53 2    
   104   52   54 am   BACKBONE|DICT|INTERRES
   105   54   55 1    
   106   54  120 1    
   107   55   56 1    
   108   55   57 1    
   109   55  121 1    
   110   56  122 1    
   111   56  123 1    
   112   56  124 1    
   113   57   58 2    
   114   57   59 am   BACKBONE|DICT|INTERRES
   115   59   60 1    
   116   59  125 1    
   117   60   61 1    
   118   60   62 1    
   119   60  126 1    
   120   61  127 1    
   121   61  128 1    
   122   61  129 1    
   123   62   63 2    
   124   62   64 am   BACKBONE|DICT|INTERRES
   125   64   65 1    
   126   64  130 1    
   127   65   66 1    
   128   65   69 1    
   129   65  131 1    
   130   66   67 am   BACKBONE|DICT|INTERRES
   131   66   68 2    
   132   67  132 1    
   133   67  133 1    
   134   69   70 1    
   135   69  134 1    
   136   69  135 1    
   137   70   71 1    
   138   71  136 1    
   139   71  137 1    
@<TRIPOS>SUBSTRUCTURE
     1 UNK         1 GROUP             0       ****    0 ROOT    
