@<TRIPOS>MOLECULE
3R137
137   139    1
SMALL
USER_CHARGES


@<TRIPOS>ATOM
      1 CA         26.7525   -6.7266    2.2592 C.3       0 UNK        -0.2020 
      2 C          26.5778   -5.2361    2.0096 C.2       0 UNK         0.4855 
      3 O          25.6464   -4.6332    2.5429 O.2       0 UNK        -0.5197 
      4 N          27.4707   -4.6387    1.2082 N.am      1 UNK        -0.4892 
      5 CA         27.4457   -3.2227    0.8184 C.3       1 UNK         0.0835 
      6 C6         28.7988   -2.8097    0.1823 C.3       12 UNK        -0.0855 
      7 S7         29.1519   -1.0186    0.2319 S.3       12 UNK        -0.2931 
      8 C8         28.5442   -0.4100   -1.3750 C.3       12 UNK         0.0378 
      9 C9         29.3628   -0.8990   -2.5650 C.ar      12 UNK        -0.0802 
     10 C10        30.4105   -0.1218   -3.0729 C.ar      12 UNK        -0.0944 
     11 C11        31.1010   -0.5242   -4.2219 C.ar      12 UNK        -0.0787 
     12 C12        30.7724   -1.7372   -4.8344 C.ar      12 UNK        -0.0862 
     13 C13        29.7497   -2.5349   -4.3183 C.ar      12 UNK        -0.0733 
     14 C14        29.0309   -2.0963   -3.2050 C.ar      12 UNK        -0.0832 
     15 C15        29.4270   -3.8836   -4.9377 C.3       12 UNK         0.0240 
     16 S16        27.8034   -3.8764   -5.7499 S.3       12 UNK        -0.2522 
     17 C17        28.1958   -3.1726   -7.3899 C.3       12 UNK        -0.0967 
     18 CA         27.4717   -1.8423   -7.7243 C.3       5 UNK         0.0660 
     19 N          26.1000   -1.8129   -7.2174 N.am      5 UNK        -0.4015 
     20 C          25.1129   -1.0497   -7.6966 C.2       4 UNK         0.4946 
     21 O          25.2328   -0.3091   -8.6724 O.2       4 UNK        -0.5353 
     22 CA         23.7973   -1.0742   -6.8983 C.3       4 UNK         0.0277 
     23 CB         22.9575   -2.3073   -7.2667 C.3       4 UNK        -0.1981 
     24 N          24.0148   -1.0395   -5.4450 N.am      4 UNK        -0.4209 
     25 C          24.6377   -0.0489   -4.7948 C.2       3 UNK         0.4942 
     26 O          25.0799    0.9458   -5.3678 O.2       3 UNK        -0.5208 
     27 CA         24.8559   -0.1782   -3.2759 C.3       3 UNK         0.0250 
     28 CB         23.6929    0.4711   -2.5024 C.3       3 UNK        -0.1990 
     29 N          25.1465   -1.5304   -2.7681 N.am      3 UNK        -0.4232 
     30 C          24.3461   -2.6033   -2.7241 C.2       2 UNK         0.4993 
     31 O          23.2385   -2.6425   -3.2616 O.2       2 UNK        -0.5286 
     32 CA         24.8474   -3.8590   -1.9780 C.3       2 UNK         0.0209 
     33 CB         25.0663   -5.0148   -2.9695 C.3       2 UNK        -0.1931 
     34 N          26.0528   -3.7321   -1.1404 N.am      2 UNK        -0.4546 
     35 C          26.2250   -2.9212   -0.0829 C.2       1 UNK         0.5154 
     36 O          25.4491   -2.0156    0.2210 O.2       1 UNK        -0.5181 
     37 C          28.2880   -0.5837   -7.3500 C.2       5 UNK         0.5014 
     38 O          29.2659   -0.2887   -8.0404 O.2       5 UNK        -0.5248 
     39 N          27.8630    0.1720   -6.3239 N.am      6 UNK        -0.4434 
     40 CA         28.4167    1.4910   -6.0005 C.3       6 UNK         0.0363 
     41 CB         28.0342    1.9153   -4.5717 C.3       6 UNK        -0.1936 
     42 C          27.9350    2.5374   -7.0135 C.2       6 UNK         0.5081 
     43 O          28.7479    3.3127   -7.5131 O.2       6 UNK        -0.5248 
     44 N          26.6338    2.5049   -7.3394 N.am      7 UNK        -0.4718 
     45 CA         26.0084    3.3385   -8.3715 C.3       7 UNK         0.0273 
     46 CB         24.4828    3.1592   -8.3260 C.3       7 UNK        -0.1935 
     47 C          26.5582    3.0564   -9.7817 C.2       7 UNK         0.5018 
     48 O          26.7308    3.9933  -10.5616 O.2       7 UNK        -0.5186 
     49 N          26.8720    1.7832  -10.0635 N.am      8 UNK        -0.4240 
     50 CA         27.5739    1.3428  -11.2744 C.3       8 UNK         0.0235 
     51 CB         27.3668   -0.1695  -11.4559 C.3       8 UNK        -0.2000 
     52 C          29.0816    1.6753  -11.2793 C.2       8 UNK         0.4941 
     53 O          29.7151    1.5147  -12.3231 O.2       8 UNK        -0.5273 
     54 N          29.6281    2.1137  -10.1337 N.am      9 UNK        -0.4262 
     55 CA         31.0276    2.4731   -9.8818 C.3       9 UNK         0.0264 
     56 CB         31.4271    3.7271  -10.6886 C.3       9 UNK        -0.1955 
     57 C          32.0038    1.2966  -10.0694 C.2       9 UNK         0.5031 
     58 O          33.0942    1.4842  -10.6146 O.2       9 UNK        -0.5390 
     59 N          31.6202    0.1055   -9.5836 N.am      10 UNK        -0.4204 
     60 CA         32.4129   -1.1290   -9.6747 C.3       10 UNK         0.0237 
     61 CB         31.5735   -2.3113   -9.1688 C.3       10 UNK        -0.1985 
     62 C          33.7588   -1.0733   -8.9264 C.2       10 UNK         0.4970 
     63 O          34.6790   -1.8066   -9.2897 O.2       10 UNK        -0.4914 
     64 N          33.8525   -0.2003   -7.9158 N.am      11 UNK        -0.4285 
     65 CA         35.0879    0.1175   -7.1845 C.3       11 UNK         0.1007 
     66 C          36.0879    1.0075   -7.9829 C.2       11 UNK         0.5703 
     67 N          35.7319    1.5582   -9.1393 N.am      11 UNK        -0.7361 
     68 O          37.2205    1.1954   -7.5450 O.2       11 UNK        -0.4986 
     69 C69        34.7866    0.7301   -5.7896 C.3       12 UNK        -0.0947 
     70 S70        33.8233   -0.3895   -4.7185 S.3       12 UNK        -0.2240 
     71 C71        32.1723    0.3639   -4.8348 C.3       12 UNK         0.0194 
     72 H72        27.6183   -7.1310    1.7351 H         1 UNK         0.0906 
     73 H73        25.8693   -7.2690    1.9226 H         1 UNK         0.0906 
     74 H74        26.8829   -6.9158    3.3244 H         1 UNK         0.0906 
     75 H75        28.2201   -5.1918    0.8160 H         1 UNK         0.3140 
     76 H76        27.3158   -2.6435    1.7360 H         1 UNK         0.1085 
     77 H77        28.9186   -3.2177   -0.8179 H         1 UNK         0.0836 
     78 H78        29.6072   -3.2661    0.7562 H         1 UNK         0.0836 
     79 H79        27.4982   -0.6847   -1.4943 H         1 UNK         0.0731 
     80 H80        28.5570    0.6808   -1.3500 H         1 UNK         0.0731 
     81 H81        30.6602    0.8164   -2.5965 H         1 UNK         0.1312 
     82 H82        31.3190   -2.0577   -5.7100 H         1 UNK         0.1406 
     83 H83        28.2118   -2.7000   -2.8437 H         1 UNK         0.1631 
     84 H84        29.4167   -4.6383   -4.1500 H         1 UNK         0.0717 
     85 H85        30.1997   -4.1951   -5.6423 H         1 UNK         0.0717 
     86 H86        29.2746   -3.0801   -7.5136 H         1 UNK         0.0934 
     87 H87        27.8962   -3.9239   -8.1223 H         1 UNK         0.0934 
     88 H88        27.3961   -1.8115   -8.8116 H         1 UNK         0.0739 
     89 H89        25.9209   -2.4019   -6.4163 H         1 UNK         0.3093 
     90 H90        23.2327   -0.1799   -7.1705 H         1 UNK         0.0818 
     91 H91        21.9845   -2.2839   -6.7754 H         1 UNK         0.0819 
     92 H92        22.7755   -2.3486   -8.3416 H         1 UNK         0.0819 
     93 H93        23.4529   -3.2366   -6.9826 H         1 UNK         0.0819 
     94 H94        23.6374   -1.7995   -4.8828 H         1 UNK         0.3041 
     95 H95        25.7487    0.4072   -3.0523 H         1 UNK         0.0784 
     96 H96        23.5556    1.5101   -2.8054 H         1 UNK         0.0793 
     97 H97        22.7478   -0.0441   -2.6770 H         1 UNK         0.0793 
     98 H98        23.8823    0.4689   -1.4288 H         1 UNK         0.0793 
     99 H99        26.0329   -1.6287   -2.2988 H         1 UNK         0.3024 
    100 H100       24.0332   -4.1434   -1.3078 H         1 UNK         0.1171 
    101 H101       24.1871   -5.1733   -3.5960 H         1 UNK         0.0786 
    102 H102       25.2586   -5.9537   -2.4499 H         1 UNK         0.0786 
    103 H103       25.9080   -4.8205   -3.6339 H         1 UNK         0.0786 
    104 H104       26.7451   -4.4546   -1.2752 H         1 UNK         0.2977 
    105 H105       27.0154   -0.0895   -5.8423 H         1 UNK         0.3127 
    106 H106       29.5052    1.4245   -6.0554 H         1 UNK         0.0770 
    107 H107       27.0402    2.3593   -4.5173 H         1 UNK         0.0814 
    108 H108       28.7340    2.6621   -4.1957 H         1 UNK         0.0814 
    109 H109       28.0500    1.0753   -3.8835 H         1 UNK         0.0814 
    110 H110       26.0274    1.8637   -6.8348 H         1 UNK         0.2983 
    111 H111       26.2362    4.3803   -8.1352 H         1 UNK         0.0947 
    112 H112       23.9929    3.8049   -9.0559 H         1 UNK         0.0806 
    113 H113       24.0829    3.4159   -7.3448 H         1 UNK         0.0806 
    114 H114       24.1874    2.1337   -8.5482 H         1 UNK         0.0806 
    115 H115       26.5975    1.0654   -9.4003 H         1 UNK         0.3000 
    116 H116       27.1242    1.8528  -12.1290 H         1 UNK         0.0850 
    117 H117       27.7174   -0.4926  -12.4370 H         1 UNK         0.0810 
    118 H118       26.3148   -0.4459  -11.3798 H         1 UNK         0.0810 
    119 H119       27.9247   -0.7396  -10.7144 H         1 UNK         0.0810 
    120 H120       29.0186    2.2221   -9.3319 H         1 UNK         0.3040 
    121 H121       31.0836    2.7372   -8.8250 H         1 UNK         0.0766 
    122 H122       31.4490    3.5295  -11.7607 H         1 UNK         0.0812 
    123 H123       30.7327    4.5486  -10.5120 H         1 UNK         0.0812 
    124 H124       32.4201    4.0761  -10.4027 H         1 UNK         0.0812 
    125 H125       30.7174    0.0321   -9.1134 H         1 UNK         0.3205 
    126 H126       32.6357   -1.2950  -10.7307 H         1 UNK         0.0754 
    127 H127       32.1050   -3.2547   -9.3010 H         1 UNK         0.0769 
    128 H128       30.6296   -2.3908   -9.7087 H         1 UNK         0.0769 
    129 H129       31.3495   -2.2087   -8.1075 H         1 UNK         0.0769 
    130 H130       33.0471    0.3632   -7.6964 H         1 UNK         0.2981 
    131 H131       35.6130   -0.8244   -7.0142 H         1 UNK         0.0541 
    132 H132       34.8101    1.4139   -9.5366 H         1 UNK         0.3459 
    133 H133       36.4018    2.1245   -9.6347 H         1 UNK         0.3459 
    134 H134       34.2669    1.6847   -5.8910 H         1 UNK         0.0612 
    135 H135       35.7166    0.9488   -5.2616 H         1 UNK         0.0612 
    136 H136       32.1912    1.3417   -4.3511 H         1 UNK         0.0624 
    137 H137       31.9220    0.5396   -5.8816 H         1 UNK         0.0624 
@<TRIPOS>BOND
     1    1    2 1    
     2    1   72 1    
     3    1   73 1    
     4    1   74 1    
     5    2    3 2    
     6    2    4 am   BACKBONE|DICT|INTERRES
     7    4    5 1    
     8    4   75 1    
     9    5    6 1    
    10    5   35 1    
    11    5   76 1    
    12    6    7 1    
    13    6   77 1    
    14    6   78 1    
    15    7    8 1    
    16    8    9 1    
    17    8   79 1    
    18    8   80 1    
    19    9   10 ar   
    20    9   14 ar   
    21   10   11 ar   
    22   10   81 1    
    23   11   12 ar   
    24   11   71 1    
    25   12   13 ar   
    26   12   82 1    
    27   13   14 ar   
    28   13   15 1    
    29   14   83 1    
    30   15   16 1    
    31   15   84 1    
    32   15   85 1    
    33   16   17 1    
    34   17   18 1    
    35   17   86 1    
    36   17   87 1    
    37   18   19 1    
    38   18   37 1    
    39   18   88 1    
    40   19   20 am   BACKBONE|DICT|INTERRES
    41   19   89 1    
    42   20   21 2    
    43   20   22 1    
    44   22   23 1    
    45   22   24 1    
    46   22   90 1    
    47   23   91 1    
    48   23   92 1    
    49   23   93 1    
    50   24   25 am   BACKBONE|DICT|INTERRES
    51   24   94 1    
    52   25   26 2    
    53   25   27 1    
    54   27   28 1    
    55   27   29 1    
    56   27   95 1    
    57   28   96 1    
    58   28   97 1    
    59   28   98 1    
    60   29   30 am   BACKBONE|DICT|INTERRES
    61   29   99 1    
    62   30   31 2    
    63   30   32 1    
    64   32   33 1    
    65   32   34 1    
    66   32  100 1    
    67   33  101 1    
    68   33  102 1    
    69   33  103 1    
    70   34   35 am   BACKBONE|DICT|INTERRES
    71   34  104 1    
    72   35   36 2    
    73   37   38 2    
    74   37   39 am   BACKBONE|DICT|INTERRES
    75   39   40 1    
    76   39  105 1    
    77   40   41 1    
    78   40   42 1    
    79   40  106 1    
    80   41  107 1    
    81   41  108 1    
    82   41  109 1    
    83   42   43 2    
    84   42   44 am   BACKBONE|DICT|INTERRES
    85   44   45 1    
    86   44  110 1    
    87   45   46 1    
    88   45   47 1    
    89   45  111 1    
    90   46  112 1    
    91   46  113 1    
    92   46  114 1    
    93   47   48 2    
    94   47   49 am   BACKBONE|DICT|INTERRES
    95   49   50 1    
    96   49  115 1    
    97   50   51 1    
    98   50   52 1    
    99   50  116 1    
   100   51  117 1    
   101   51  118 1    
   102   51  119 1    
   103   52   53 2    
   104   52   54 am   BACKBONE|DICT|INTERRES
   105   54   55 1    
   106   54  120 1    
   107   55   56 1    
   108   55   57 1    
   109   55  121 1    
   110   56  122 1    
   111   56  123 1    
   112   56  124 1    
   113   57   58 2    
   114   57   59 am   BACKBONE|DICT|INTERRES
   115   59   60 1    
   116   59  125 1    
   117   60   61 1    
   118   60   62 1    
   119   60  126 1    
   120   61  127 1    
   121   61  128 1    
   122   61  129 1    
   123   62   63 2    
   124   62   64 am   BACKBONE|DICT|INTERRES
   125   64   65 1    
   126   64  130 1    
   127   65   66 1    
   128   65   69 1    
   129   65  131 1    
   130   66   67 am   BACKBONE|DICT|INTERRES
   131   66   68 2    
   132   67  132 1    
   133   67  133 1    
   134   69   70 1    
   135   69  134 1    
   136   69  135 1    
   137   70   71 1    
   138   71  136 1    
   139   71  137 1    
@<TRIPOS>SUBSTRUCTURE
     1 UNK         1 GROUP             0       ****    0 ROOT    
