@<TRIPOS>MOLECULE
3R137
137   139    1
SMALL
USER_CHARGES


@<TRIPOS>ATOM
      1 CA         27.5974   -6.7171    0.9747 C.3       0 UNK        -0.2020 
      2 C          27.4071   -5.3141    0.4182 C.2       0 UNK         0.4855 
      3 O          27.5400   -5.1266   -0.7910 O.2       0 UNK        -0.5197 
      4 N          27.0829   -4.3529    1.2984 N.am      1 UNK        -0.4892 
      5 CA         26.8574   -2.9021    1.1230 C.3       1 UNK         0.0835 
      6 C6         28.1497   -2.0345    1.0577 C.3       12 UNK        -0.0855 
      7 S7         29.3902   -2.4994   -0.1963 S.3       12 UNK        -0.2931 
      8 C8         28.9415   -1.4073   -1.5765 C.3       12 UNK         0.0378 
      9 C9         29.6552   -1.8310   -2.8493 C.ar      12 UNK        -0.0802 
     10 C10        30.7652   -1.1221   -3.3155 C.ar      12 UNK        -0.0944 
     11 C11        31.4267   -1.5253   -4.4800 C.ar      12 UNK        -0.0787 
     12 C12        30.9639   -2.6428   -5.1845 C.ar      12 UNK        -0.0862 
     13 C13        29.8561   -3.3630   -4.7228 C.ar      12 UNK        -0.0733 
     14 C14        29.2065   -2.9493   -3.5558 C.ar      12 UNK        -0.0832 
     15 C15        29.3909   -4.6195   -5.4484 C.3       12 UNK         0.0240 
     16 S16        28.4100   -4.2640   -6.9414 S.3       12 UNK        -0.2522 
     17 C17        26.9064   -3.4920   -6.2481 C.3       12 UNK        -0.0967 
     18 CA         26.5023   -2.1986   -6.9937 C.3       5 UNK         0.0660 
     19 N          25.1629   -1.7427   -6.6204 N.am      5 UNK        -0.4015 
     20 C          24.4515   -0.8402   -7.3117 C.2       4 UNK         0.4946 
     21 O          24.8221   -0.3418   -8.3740 O.2       4 UNK        -0.5353 
     22 CA         23.1239   -0.3799   -6.6871 C.3       4 UNK         0.0277 
     23 CB         21.9992   -1.3801   -6.9988 C.3       4 UNK        -0.1981 
     24 N          23.2266   -0.1836   -5.2388 N.am      4 UNK        -0.4209 
     25 C          23.9910    0.7534   -4.6585 C.2       3 UNK         0.4942 
     26 O          24.6281    1.5983   -5.2859 O.2       3 UNK        -0.5208 
     27 CA         24.0966    0.7187   -3.1241 C.3       3 UNK         0.0250 
     28 CB         23.0064    1.5968   -2.4901 C.3       3 UNK        -0.1990 
     29 N          24.0342   -0.6307   -2.5513 N.am      3 UNK        -0.4232 
     30 C          24.9036   -1.6181   -2.8083 C.2       2 UNK         0.4993 
     31 O          25.8470   -1.5144   -3.5956 O.2       2 UNK        -0.5286 
     32 CA         24.6630   -2.9529   -2.0842 C.3       2 UNK         0.0209 
     33 CB         24.7012   -4.1346   -3.0684 C.3       2 UNK        -0.1931 
     34 N          25.6436   -3.1864   -1.0243 N.am      2 UNK        -0.4546 
     35 C          25.7849   -2.4677    0.0941 C.2       1 UNK         0.5154 
     36 O          25.0728   -1.4975    0.3592 O.2       1 UNK        -0.5181 
     37 C          27.5294   -1.0634   -6.8258 C.2       5 UNK         0.5014 
     38 O          28.3170   -0.8405   -7.7425 O.2       5 UNK        -0.5248 
     39 N          27.4572   -0.3248   -5.7074 N.am      6 UNK        -0.4434 
     40 CA         28.3011    0.8436   -5.4309 C.3       6 UNK         0.0363 
     41 CB         27.9795    1.3969   -4.0342 C.3       6 UNK        -0.1936 
     42 C          28.1811    1.9607   -6.4859 C.2       6 UNK         0.5081 
     43 O          29.1711    2.6335   -6.7713 O.2       6 UNK        -0.5248 
     44 N          26.9763    2.1410   -7.0436 N.am      7 UNK        -0.4718 
     45 CA         26.7082    3.0601   -8.1482 C.3       7 UNK         0.0273 
     46 CB         25.2019    3.3626   -8.2041 C.3       7 UNK        -0.1935 
     47 C          27.2048    2.5218   -9.5018 C.2       7 UNK         0.5018 
     48 O          27.7524    3.2953  -10.2885 O.2       7 UNK        -0.5186 
     49 N          26.9727    1.2285   -9.7678 N.am      8 UNK        -0.4240 
     50 CA         27.2801    0.5817  -11.0455 C.3       8 UNK         0.0235 
     51 CB         26.4498   -0.7052  -11.1815 C.3       8 UNK        -0.2000 
     52 C          28.7726    0.2754  -11.2506 C.2       8 UNK         0.4941 
     53 O          29.2764    0.4753  -12.3576 O.2       8 UNK        -0.5273 
     54 N          29.4409   -0.2475  -10.2152 N.am      9 UNK        -0.4262 
     55 CA         30.8351   -0.6886  -10.2692 C.3       9 UNK         0.0264 
     56 CB         31.1062   -1.6508   -9.0997 C.3       9 UNK        -0.1955 
     57 C          31.8216    0.4880  -10.2344 C.2       9 UNK         0.5031 
     58 O          31.5269    1.5402   -9.6619 O.2       9 UNK        -0.5390 
     59 N          33.0116    0.2646  -10.8046 N.am      10 UNK        -0.4204 
     60 CA         34.1449    1.1894  -10.7688 C.3       10 UNK         0.0237 
     61 CB         35.0473    0.9242  -11.9891 C.3       10 UNK        -0.1985 
     62 C          34.8980    1.0573   -9.4323 C.2       10 UNK         0.4970 
     63 O          36.0175    0.5428   -9.4030 O.2       10 UNK        -0.4914 
     64 N          34.2482    1.4904   -8.3455 N.am      11 UNK        -0.4285 
     65 CA         34.7656    1.4270   -6.9680 C.3       11 UNK         0.1007 
     66 C          36.0005    2.3327   -6.6835 C.2       11 UNK         0.5703 
     67 N          36.3063    3.3243   -7.5125 N.am      11 UNK        -0.7361 
     68 O          36.6959    2.1267   -5.6915 O.2       11 UNK        -0.4986 
     69 C69        33.6533    1.6920   -5.9200 C.3       12 UNK        -0.0947 
     70 S70        32.2114    0.5865   -6.0789 S.3       12 UNK        -0.2240 
     71 C71        32.6582   -0.7649   -4.9491 C.3       12 UNK         0.0194 
     72 H72        26.8902   -7.4038    0.5102 H         1 UNK         0.0906 
     73 H73        28.6056   -7.0700    0.7593 H         1 UNK         0.0906 
     74 H74        27.4487   -6.7555    2.0537 H         1 UNK         0.0906 
     75 H75        26.9715   -4.6485    2.2589 H         1 UNK         0.3140 
     76 H76        26.3927   -2.6282    2.0723 H         1 UNK         0.1085 
     77 H77        27.9022   -0.9768    0.9456 H         1 UNK         0.0836 
     78 H78        28.6548   -2.1001    2.0226 H         1 UNK         0.0836 
     79 H79        27.8650   -1.4395   -1.7422 H         1 UNK         0.0731 
     80 H80        29.1867   -0.3765   -1.3164 H         1 UNK         0.0731 
     81 H81        31.1210   -0.2601   -2.7679 H         1 UNK         0.1312 
     82 H82        31.4730   -2.9607   -6.0840 H         1 UNK         0.1406 
     83 H83        28.3587   -3.5058   -3.1780 H         1 UNK         0.1631 
     84 H84        28.8065   -5.2550   -4.7808 H         1 UNK         0.0717 
     85 H85        30.2621   -5.2090   -5.7375 H         1 UNK         0.0717 
     86 H86        26.1035   -4.2273   -6.3198 H         1 UNK         0.0934 
     87 H87        27.0342   -3.2945   -5.1853 H         1 UNK         0.0934 
     88 H88        26.4643   -2.4388   -8.0588 H         1 UNK         0.0739 
     89 H89        24.8212   -2.0436   -5.7198 H         1 UNK         0.3093 
     90 H90        22.8626    0.5800   -7.1385 H         1 UNK         0.0818 
     91 H91        21.0372   -1.0217   -6.6321 H         1 UNK         0.0819 
     92 H92        21.8982   -1.5277   -8.0751 H         1 UNK         0.0819 
     93 H93        22.1866   -2.3574   -6.5523 H         1 UNK         0.0819 
     94 H94        22.7180   -0.8239   -4.6468 H         1 UNK         0.3041 
     95 H95        25.0674    1.1380   -2.8547 H         1 UNK         0.0784 
     96 H96        23.0483    2.6141   -2.8825 H         1 UNK         0.0793 
     97 H97        22.0064    1.2107   -2.6916 H         1 UNK         0.0793 
     98 H98        23.1300    1.6642   -1.4090 H         1 UNK         0.0793 
     99 H99        23.3115   -0.7918   -1.8640 H         1 UNK         0.3024 
    100 H100       23.6718   -2.9299   -1.6263 H         1 UNK         0.1171 
    101 H101       24.0191   -3.9764   -3.9047 H         1 UNK         0.0786 
    102 H102       24.4038   -5.0626   -2.5797 H         1 UNK         0.0786 
    103 H103       25.6996   -4.2851   -3.4795 H         1 UNK         0.0786 
    104 H104       26.3023   -3.9547   -1.1533 H         1 UNK         0.2977 
    105 H105       26.8089   -0.6108   -4.9773 H         1 UNK         0.3127 
    106 H106       29.3335    0.4918   -5.4326 H         1 UNK         0.0770 
    107 H107       27.0082    1.8900   -4.0111 H         1 UNK         0.0814 
    108 H108       28.7242    2.1340   -3.7321 H         1 UNK         0.0814 
    109 H109       27.9727    0.6107   -3.2821 H         1 UNK         0.0814 
    110 H110       26.1908    1.6115   -6.6805 H         1 UNK         0.2983 
    111 H111       27.2332    3.9977   -7.9517 H         1 UNK         0.0947 
    112 H112       24.9732    4.0626   -9.0088 H         1 UNK         0.0806 
    113 H113       24.8542    3.8118   -7.2734 H         1 UNK         0.0806 
    114 H114       24.6138    2.4605   -8.3774 H         1 UNK         0.0806 
    115 H115       26.4812    0.6675   -9.0793 H         1 UNK         0.3000 
    116 H116       26.9738    1.2585  -11.8464 H         1 UNK         0.0850 
    117 H117       26.6478   -1.2015  -12.1325 H         1 UNK         0.0810 
    118 H118       25.3812   -0.4927  -11.1431 H         1 UNK         0.0810 
    119 H119       26.6772   -1.4165  -10.3866 H         1 UNK         0.0810 
    120 H120       28.9669   -0.3625   -9.3183 H         1 UNK         0.3040 
    121 H121       30.9813   -1.2360  -11.2030 H         1 UNK         0.0766 
    122 H122       32.1280   -2.0310   -9.1247 H         1 UNK         0.0812 
    123 H123       30.4372   -2.5112   -9.1291 H         1 UNK         0.0812 
    124 H124       30.9659   -1.1583   -8.1371 H         1 UNK         0.0812 
    125 H125       33.1873   -0.6401  -11.2186 H         1 UNK         0.3205 
    126 H126       33.7784    2.2158  -10.8442 H         1 UNK         0.0754 
    127 H127       35.9013    1.6030  -11.9971 H         1 UNK         0.0769 
    128 H128       34.5053    1.0775  -12.9226 H         1 UNK         0.0769 
    129 H129       35.4395   -0.0937  -11.9930 H         1 UNK         0.0769 
    130 H130       33.3013    1.8349   -8.4568 H         1 UNK         0.2981 
    131 H131       35.1123    0.4031   -6.8155 H         1 UNK         0.0541 
    132 H132       37.1102    3.9002   -7.3182 H         1 UNK         0.3459 
    133 H133       35.7403    3.5039   -8.3258 H         1 UNK         0.3459 
    134 H134       33.2893    2.7165   -6.0164 H         1 UNK         0.0612 
    135 H135       34.0482    1.6121   -4.9057 H         1 UNK         0.0612 
    136 H136       33.3535   -1.4373   -5.4536 H         1 UNK         0.0624 
    137 H137       33.1883   -0.3670   -4.0828 H         1 UNK         0.0624 
@<TRIPOS>BOND
     1    1    2 1    
     2    1   72 1    
     3    1   73 1    
     4    1   74 1    
     5    2    3 2    
     6    2    4 am   BACKBONE|DICT|INTERRES
     7    4    5 1    
     8    4   75 1    
     9    5    6 1    
    10    5   35 1    
    11    5   76 1    
    12    6    7 1    
    13    6   77 1    
    14    6   78 1    
    15    7    8 1    
    16    8    9 1    
    17    8   79 1    
    18    8   80 1    
    19    9   10 ar   
    20    9   14 ar   
    21   10   11 ar   
    22   10   81 1    
    23   11   12 ar   
    24   11   71 1    
    25   12   13 ar   
    26   12   82 1    
    27   13   14 ar   
    28   13   15 1    
    29   14   83 1    
    30   15   16 1    
    31   15   84 1    
    32   15   85 1    
    33   16   17 1    
    34   17   18 1    
    35   17   86 1    
    36   17   87 1    
    37   18   19 1    
    38   18   37 1    
    39   18   88 1    
    40   19   20 am   BACKBONE|DICT|INTERRES
    41   19   89 1    
    42   20   21 2    
    43   20   22 1    
    44   22   23 1    
    45   22   24 1    
    46   22   90 1    
    47   23   91 1    
    48   23   92 1    
    49   23   93 1    
    50   24   25 am   BACKBONE|DICT|INTERRES
    51   24   94 1    
    52   25   26 2    
    53   25   27 1    
    54   27   28 1    
    55   27   29 1    
    56   27   95 1    
    57   28   96 1    
    58   28   97 1    
    59   28   98 1    
    60   29   30 am   BACKBONE|DICT|INTERRES
    61   29   99 1    
    62   30   31 2    
    63   30   32 1    
    64   32   33 1    
    65   32   34 1    
    66   32  100 1    
    67   33  101 1    
    68   33  102 1    
    69   33  103 1    
    70   34   35 am   BACKBONE|DICT|INTERRES
    71   34  104 1    
    72   35   36 2    
    73   37   38 2    
    74   37   39 am   BACKBONE|DICT|INTERRES
    75   39   40 1    
    76   39  105 1    
    77   40   41 1    
    78   40   42 1    
    79   40  106 1    
    80   41  107 1    
    81   41  108 1    
    82   41  109 1    
    83   42   43 2    
    84   42   44 am   BACKBONE|DICT|INTERRES
    85   44   45 1    
    86   44  110 1    
    87   45   46 1    
    88   45   47 1    
    89   45  111 1    
    90   46  112 1    
    91   46  113 1    
    92   46  114 1    
    93   47   48 2    
    94   47   49 am   BACKBONE|DICT|INTERRES
    95   49   50 1    
    96   49  115 1    
    97   50   51 1    
    98   50   52 1    
    99   50  116 1    
   100   51  117 1    
   101   51  118 1    
   102   51  119 1    
   103   52   53 2    
   104   52   54 am   BACKBONE|DICT|INTERRES
   105   54   55 1    
   106   54  120 1    
   107   55   56 1    
   108   55   57 1    
   109   55  121 1    
   110   56  122 1    
   111   56  123 1    
   112   56  124 1    
   113   57   58 2    
   114   57   59 am   BACKBONE|DICT|INTERRES
   115   59   60 1    
   116   59  125 1    
   117   60   61 1    
   118   60   62 1    
   119   60  126 1    
   120   61  127 1    
   121   61  128 1    
   122   61  129 1    
   123   62   63 2    
   124   62   64 am   BACKBONE|DICT|INTERRES
   125   64   65 1    
   126   64  130 1    
   127   65   66 1    
   128   65   69 1    
   129   65  131 1    
   130   66   67 am   BACKBONE|DICT|INTERRES
   131   66   68 2    
   132   67  132 1    
   133   67  133 1    
   134   69   70 1    
   135   69  134 1    
   136   69  135 1    
   137   70   71 1    
   138   71  136 1    
   139   71  137 1    
@<TRIPOS>SUBSTRUCTURE
     1 UNK         1 GROUP             0       ****    0 ROOT    
