@<TRIPOS>MOLECULE
3R137
137   139    1
SMALL
USER_CHARGES


@<TRIPOS>ATOM
      1 CA         26.1585   -7.6507   -4.1342 C.3       0 UNK        -0.2020 
      2 C          26.2738   -6.6480   -2.9956 C.2       0 UNK         0.4855 
      3 O          25.6410   -6.8289   -1.9542 O.2       0 UNK        -0.5197 
      4 N          27.0843   -5.5994   -3.1825 N.am      1 UNK        -0.4892 
      5 CA         27.2725   -4.5035   -2.2240 C.3       1 UNK         0.0835 
      6 C6         28.5810   -3.7218   -2.5009 C.3       12 UNK        -0.0855 
      7 S7         30.0649   -4.7868   -2.3699 S.3       12 UNK        -0.2931 
      8 C8         31.2908   -3.6822   -1.5890 C.3       12 UNK         0.0378 
      9 C9         31.5796   -2.4782   -2.4715 C.ar      12 UNK        -0.0802 
     10 C10        32.4367   -2.5925   -3.5690 C.ar      12 UNK        -0.0944 
     11 C11        32.6049   -1.5187   -4.4479 C.ar      12 UNK        -0.0787 
     12 C12        31.9136   -0.3226   -4.2189 C.ar      12 UNK        -0.0862 
     13 C13        31.0519   -0.1989   -3.1236 C.ar      12 UNK        -0.0733 
     14 C14        30.9264   -1.2682   -2.2318 C.ar      12 UNK        -0.0832 
     15 C15        30.2082    1.0581   -2.9383 C.3       12 UNK         0.0240 
     16 S16        28.4530    0.6422   -2.6425 S.3       12 UNK        -0.2522 
     17 C17        27.5748    2.0047   -3.4717 C.3       12 UNK        -0.0967 
     18 CA         27.2390    1.6544   -4.9405 C.3       5 UNK         0.0660 
     19 N          26.4380    0.4321   -5.0719 N.am      5 UNK        -0.4015 
     20 C          26.2114   -0.2114   -6.2286 C.2       4 UNK         0.4946 
     21 O          26.6818    0.1537   -7.3078 O.2       4 UNK        -0.5353 
     22 CA         25.2663   -1.4265   -6.2016 C.3       4 UNK         0.0277 
     23 CB         26.0710   -2.7349   -6.1862 C.3       4 UNK        -0.1981 
     24 N          24.3190   -1.4127   -5.0815 N.am      4 UNK        -0.4209 
     25 C          23.3967   -0.4561   -4.8834 C.2       3 UNK         0.4942 
     26 O          23.2306    0.4925   -5.6510 O.2       3 UNK        -0.5208 
     27 CA         22.5490   -0.5229   -3.6005 C.3       3 UNK         0.0250 
     28 CB         21.1685   -1.1269   -3.9033 C.3       3 UNK        -0.1990 
     29 N          23.1649   -1.2609   -2.4940 N.am      3 UNK        -0.4232 
     30 C          24.3463   -0.9860   -1.9218 C.2       2 UNK         0.4993 
     31 O          25.0843   -0.0700   -2.2864 O.2       2 UNK        -0.5286 
     32 CA         24.7947   -1.9048   -0.7666 C.3       2 UNK         0.0209 
     33 CB         23.6512   -2.7571   -0.1694 C.3       2 UNK        -0.1931 
     34 N          25.9231   -2.7792   -1.1188 N.am      2 UNK        -0.4546 
     35 C          26.0415   -3.5670   -2.1998 C.2       1 UNK         0.5154 
     36 O          25.2358   -3.5761   -3.1367 O.2       1 UNK        -0.5181 
     37 C          26.6270    2.8676   -5.6739 C.2       5 UNK         0.5014 
     38 O          27.3662    3.8095   -5.9596 O.2       5 UNK        -0.5248 
     39 N          25.3360    2.8157   -6.0456 N.am      6 UNK        -0.4434 
     40 CA         24.7017    3.7844   -6.9493 C.3       6 UNK         0.0363 
     41 CB         23.1872    3.5299   -6.9949 C.3       6 UNK        -0.1936 
     42 C          25.2934    3.7623   -8.3745 C.2       6 UNK         0.5081 
     43 O          25.2577    4.7863   -9.0563 O.2       6 UNK        -0.5248 
     44 N          25.8540    2.6148   -8.7820 N.am      7 UNK        -0.4718 
     45 CA         26.6227    2.4269  -10.0153 C.3       7 UNK         0.0273 
     46 CB         26.0679    1.1921  -10.7483 C.3       7 UNK        -0.1935 
     47 C          28.1280    2.2666   -9.7165 C.2       7 UNK         0.5018 
     48 O          28.8722    1.8142  -10.5878 O.2       7 UNK        -0.5186 
     49 N          28.5452    2.5959   -8.4820 N.am      8 UNK        -0.4240 
     50 CA         29.8907    2.4574   -7.9074 C.3       8 UNK         0.0235 
     51 CB         30.8785    3.3976   -8.6276 C.3       8 UNK        -0.2000 
     52 C          30.4101    1.0045   -7.8361 C.2       8 UNK         0.4941 
     53 O          31.6196    0.8134   -7.6904 O.2       8 UNK        -0.5273 
     54 N          29.5024    0.0211   -7.9670 N.am      9 UNK        -0.4262 
     55 CA         29.6844   -1.4392   -7.9803 C.3       9 UNK         0.0264 
     56 CB         29.6225   -1.9909   -6.5458 C.3       9 UNK        -0.1955 
     57 C          30.9064   -1.9574   -8.7709 C.2       9 UNK         0.5031 
     58 O          31.5051   -2.9626   -8.3841 O.2       9 UNK        -0.5390 
     59 N          31.2515   -1.2551   -9.8598 N.am      10 UNK        -0.4204 
     60 CA         32.4020   -1.4822  -10.7400 C.3       10 UNK         0.0237 
     61 CB         32.2530   -2.8162  -11.5046 C.3       10 UNK        -0.1985 
     62 C          33.7809   -1.3320  -10.0559 C.2       10 UNK         0.4970 
     63 O          34.7409   -1.9558  -10.5138 O.2       10 UNK        -0.4914 
     64 N          33.8860   -0.4873   -9.0189 N.am      11 UNK        -0.4285 
     65 CA         35.1699   -0.0963   -8.4055 C.3       11 UNK         0.1007 
     66 C          35.2524    1.4000   -7.9954 C.2       11 UNK         0.5703 
     67 N          34.1438    2.1077   -7.8208 N.am      11 UNK        -0.7361 
     68 O          36.3494    1.9378   -7.8605 O.2       11 UNK        -0.4986 
     69 C69        35.6512   -1.0855   -7.3012 C.3       12 UNK        -0.0947 
     70 S70        35.0042   -0.7892   -5.6168 S.3       12 UNK        -0.2240 
     71 C71        33.4357   -1.6887   -5.7099 C.3       12 UNK         0.0194 
     72 H72        26.7814   -7.3755   -4.9852 H         1 UNK         0.0906 
     73 H73        26.4648   -8.6402   -3.7959 H         1 UNK         0.0906 
     74 H74        25.1256   -7.7115   -4.4762 H         1 UNK         0.0906 
     75 H75        27.5768   -5.4993   -4.0579 H         1 UNK         0.3140 
     76 H76        27.3514   -4.9477   -1.2287 H         1 UNK         0.1085 
     77 H77        28.5642   -3.2645   -3.4923 H         1 UNK         0.0836 
     78 H78        28.6778   -2.9012   -1.7894 H         1 UNK         0.0836 
     79 H79        32.2125   -4.2390   -1.4137 H         1 UNK         0.0731 
     80 H80        30.9295   -3.3697   -0.6079 H         1 UNK         0.0731 
     81 H81        32.9296   -3.5347   -3.7664 H         1 UNK         0.1312 
     82 H82        32.0130    0.4897   -4.9266 H         1 UNK         0.1406 
     83 H83        30.2594   -1.1793   -1.3854 H         1 UNK         0.1631 
     84 H84        30.2861    1.6946   -3.8211 H         1 UNK         0.0717 
     85 H85        30.5914    1.6362   -2.0967 H         1 UNK         0.0717 
     86 H86        26.6614    2.2119   -2.9106 H         1 UNK         0.0934 
     87 H87        28.1829    2.9096   -3.4088 H         1 UNK         0.0934 
     88 H88        28.1862    1.4510   -5.4440 H         1 UNK         0.0739 
     89 H89        26.0141    0.0873   -4.2164 H         1 UNK         0.3093 
     90 H90        24.6814   -1.3981   -7.1233 H         1 UNK         0.0818 
     91 H91        26.7174   -2.8047   -7.0619 H         1 UNK         0.0819 
     92 H92        26.7063   -2.8073   -5.3031 H         1 UNK         0.0819 
     93 H93        25.4156   -3.6060   -6.1981 H         1 UNK         0.0819 
     94 H94        24.4235   -2.1472   -4.3870 H         1 UNK         0.3041 
     95 H95        22.4056    0.5050   -3.2611 H         1 UNK         0.0784 
     96 H96        20.6708   -0.5808   -4.7062 H         1 UNK         0.0793 
     97 H97        21.2442   -2.1691   -4.2164 H         1 UNK         0.0793 
     98 H98        20.5147   -1.0829   -3.0320 H         1 UNK         0.0793 
     99 H99        22.6515   -2.0577   -2.1462 H         1 UNK         0.3024 
    100 H100       25.1502   -1.2348    0.0183 H         1 UNK         0.1171 
    101 H101       23.9853   -3.2805    0.7267 H         1 UNK         0.0786 
    102 H102       22.8039   -2.1365    0.1266 H         1 UNK         0.0786 
    103 H103       23.2891   -3.5118   -0.8689 H         1 UNK         0.0786 
    104 H104       26.6643   -2.8081   -0.4324 H         1 UNK         0.2977 
    105 H105       24.7782    2.0073   -5.7911 H         1 UNK         0.3127 
    106 H106       24.8685    4.7827   -6.5393 H         1 UNK         0.0770 
    107 H107       22.9553    2.5532   -7.4215 H         1 UNK         0.0814 
    108 H108       22.6846    4.2797   -7.6073 H         1 UNK         0.0814 
    109 H109       22.7450    3.5744   -5.9995 H         1 UNK         0.0814 
    110 H110       25.8541    1.8189   -8.1510 H         1 UNK         0.2983 
    111 H111       26.5170    3.2944  -10.6700 H         1 UNK         0.0947 
    112 H112       26.5720    1.0403  -11.7036 H         1 UNK         0.0806 
    113 H113       25.0044    1.3027  -10.9605 H         1 UNK         0.0806 
    114 H114       26.1996    0.2827  -10.1602 H         1 UNK         0.0806 
    115 H115       27.8566    2.9889   -7.8510 H         1 UNK         0.3000 
    116 H116       29.8124    2.7968   -6.8739 H         1 UNK         0.0850 
    117 H117       31.8049    3.4964   -8.0636 H         1 UNK         0.0810 
    118 H118       30.4661    4.4008   -8.7351 H         1 UNK         0.0810 
    119 H119       31.1356    3.0319   -9.6224 H         1 UNK         0.0810 
    120 H120       28.5300    0.3069   -8.0387 H         1 UNK         0.3040 
    121 H121       28.8124   -1.8287   -8.5077 H         1 UNK         0.0766 
    122 H122       30.5275   -1.7537   -6.0012 H         1 UNK         0.0812 
    123 H123       29.5185   -3.0764   -6.5432 H         1 UNK         0.0812 
    124 H124       28.7872   -1.5780   -5.9835 H         1 UNK         0.0812 
    125 H125       30.6953   -0.4370  -10.0722 H         1 UNK         0.3205 
    126 H126       32.3623   -0.6827  -11.4811 H         1 UNK         0.0754 
    127 H127       33.0134   -2.9122  -12.2807 H         1 UNK         0.0769 
    128 H128       31.2828   -2.8859  -11.9964 H         1 UNK         0.0769 
    129 H129       32.3560   -3.6761  -10.8420 H         1 UNK         0.0769 
    130 H130       33.0564   -0.0244   -8.6595 H         1 UNK         0.2981 
    131 H131       35.9144   -0.1611   -9.2018 H         1 UNK         0.0541 
    132 H132       33.2283    1.6681   -7.8333 H         1 UNK         0.3459 
    133 H133       34.2284    3.0783   -7.5673 H         1 UNK         0.3459 
    134 H134       36.7381   -1.0248   -7.2271 H         1 UNK         0.0612 
    135 H135       35.4426   -2.1162   -7.5922 H         1 UNK         0.0612 
    136 H136       32.8663   -1.3190   -6.5613 H         1 UNK         0.0624 
    137 H137       33.6338   -2.7433   -5.9072 H         1 UNK         0.0624 
@<TRIPOS>BOND
     1    1    2 1    
     2    1   72 1    
     3    1   73 1    
     4    1   74 1    
     5    2    3 2    
     6    2    4 am   BACKBONE|DICT|INTERRES
     7    4    5 1    
     8    4   75 1    
     9    5    6 1    
    10    5   35 1    
    11    5   76 1    
    12    6    7 1    
    13    6   77 1    
    14    6   78 1    
    15    7    8 1    
    16    8    9 1    
    17    8   79 1    
    18    8   80 1    
    19    9   10 ar   
    20    9   14 ar   
    21   10   11 ar   
    22   10   81 1    
    23   11   12 ar   
    24   11   71 1    
    25   12   13 ar   
    26   12   82 1    
    27   13   14 ar   
    28   13   15 1    
    29   14   83 1    
    30   15   16 1    
    31   15   84 1    
    32   15   85 1    
    33   16   17 1    
    34   17   18 1    
    35   17   86 1    
    36   17   87 1    
    37   18   19 1    
    38   18   37 1    
    39   18   88 1    
    40   19   20 am   BACKBONE|DICT|INTERRES
    41   19   89 1    
    42   20   21 2    
    43   20   22 1    
    44   22   23 1    
    45   22   24 1    
    46   22   90 1    
    47   23   91 1    
    48   23   92 1    
    49   23   93 1    
    50   24   25 am   BACKBONE|DICT|INTERRES
    51   24   94 1    
    52   25   26 2    
    53   25   27 1    
    54   27   28 1    
    55   27   29 1    
    56   27   95 1    
    57   28   96 1    
    58   28   97 1    
    59   28   98 1    
    60   29   30 am   BACKBONE|DICT|INTERRES
    61   29   99 1    
    62   30   31 2    
    63   30   32 1    
    64   32   33 1    
    65   32   34 1    
    66   32  100 1    
    67   33  101 1    
    68   33  102 1    
    69   33  103 1    
    70   34   35 am   BACKBONE|DICT|INTERRES
    71   34  104 1    
    72   35   36 2    
    73   37   38 2    
    74   37   39 am   BACKBONE|DICT|INTERRES
    75   39   40 1    
    76   39  105 1    
    77   40   41 1    
    78   40   42 1    
    79   40  106 1    
    80   41  107 1    
    81   41  108 1    
    82   41  109 1    
    83   42   43 2    
    84   42   44 am   BACKBONE|DICT|INTERRES
    85   44   45 1    
    86   44  110 1    
    87   45   46 1    
    88   45   47 1    
    89   45  111 1    
    90   46  112 1    
    91   46  113 1    
    92   46  114 1    
    93   47   48 2    
    94   47   49 am   BACKBONE|DICT|INTERRES
    95   49   50 1    
    96   49  115 1    
    97   50   51 1    
    98   50   52 1    
    99   50  116 1    
   100   51  117 1    
   101   51  118 1    
   102   51  119 1    
   103   52   53 2    
   104   52   54 am   BACKBONE|DICT|INTERRES
   105   54   55 1    
   106   54  120 1    
   107   55   56 1    
   108   55   57 1    
   109   55  121 1    
   110   56  122 1    
   111   56  123 1    
   112   56  124 1    
   113   57   58 2    
   114   57   59 am   BACKBONE|DICT|INTERRES
   115   59   60 1    
   116   59  125 1    
   117   60   61 1    
   118   60   62 1    
   119   60  126 1    
   120   61  127 1    
   121   61  128 1    
   122   61  129 1    
   123   62   63 2    
   124   62   64 am   BACKBONE|DICT|INTERRES
   125   64   65 1    
   126   64  130 1    
   127   65   66 1    
   128   65   69 1    
   129   65  131 1    
   130   66   67 am   BACKBONE|DICT|INTERRES
   131   66   68 2    
   132   67  132 1    
   133   67  133 1    
   134   69   70 1    
   135   69  134 1    
   136   69  135 1    
   137   70   71 1    
   138   71  136 1    
   139   71  137 1    
@<TRIPOS>SUBSTRUCTURE
     1 UNK         1 GROUP             0       ****    0 ROOT    
