@<TRIPOS>MOLECULE
3R137
137   139    1
SMALL
USER_CHARGES


@<TRIPOS>ATOM
      1 CA         30.3176   -3.5621   -4.7655 C.3       0 UNK        -0.2020 
      2 C          29.6784   -4.4302   -3.6967 C.2       0 UNK         0.4855 
      3 O          29.4357   -5.6135   -3.9340 O.2       0 UNK        -0.5197 
      4 N          29.3980   -3.8516   -2.5230 N.am      1 UNK        -0.4892 
      5 CA         28.7906   -4.5443   -1.3780 C.3       1 UNK         0.0835 
      6 C6         29.0715   -3.8042   -0.0468 C.3       12 UNK        -0.0855 
      7 S7         30.8570   -3.7426    0.3358 S.3       12 UNK        -0.2931 
      8 C8         31.1745   -1.9550    0.4767 C.3       12 UNK         0.0378 
      9 C9         31.1690   -1.2547   -0.8750 C.ar      12 UNK        -0.0802 
     10 C10        32.2824   -1.3419   -1.7175 C.ar      12 UNK        -0.0944 
     11 C11        32.2986   -0.6747   -2.9474 C.ar      12 UNK        -0.0787 
     12 C12        31.1927    0.0911   -3.3260 C.ar      12 UNK        -0.0862 
     13 C13        30.0767    0.1897   -2.4909 C.ar      12 UNK        -0.0733 
     14 C14        30.0690   -0.4867   -1.2677 C.ar      12 UNK        -0.0832 
     15 C15        28.8845    1.0419   -2.8961 C.3       12 UNK         0.0240 
     16 S16        27.5462    0.0167   -3.5699 S.3       12 UNK        -0.2522 
     17 C17        28.1701   -0.3514   -5.2505 C.3       12 UNK        -0.0967 
     18 CA         27.2697    0.1638   -6.4003 C.3       5 UNK         0.0660 
     19 N          26.0158   -0.5902   -6.5063 N.am      5 UNK        -0.4015 
     20 C          25.1229   -0.4624   -7.5023 C.2       4 UNK         0.4946 
     21 O          25.2846    0.2920   -8.4635 O.2       4 UNK        -0.5353 
     22 CA         23.8042   -1.2528   -7.3964 C.3       4 UNK         0.0277 
     23 CB         23.8948   -2.5470   -8.2195 C.3       4 UNK        -0.1981 
     24 N          23.4058   -1.5774   -6.0230 N.am      4 UNK        -0.4209 
     25 C          23.2184   -0.6865   -5.0387 C.2       3 UNK         0.4942 
     26 O          23.2733    0.5328   -5.2054 O.2       3 UNK        -0.5208 
     27 CA         22.9829   -1.2331   -3.6179 C.3       3 UNK         0.0250 
     28 CB         21.4787   -1.2428   -3.2998 C.3       3 UNK        -0.1990 
     29 N          23.5491   -2.5563   -3.3035 N.am      3 UNK        -0.4232 
     30 C          24.8016   -2.9781   -3.5351 C.2       2 UNK         0.4993 
     31 O          25.6134   -2.3954   -4.2565 O.2       2 UNK        -0.5286 
     32 CA         25.2211   -4.2897   -2.8687 C.3       2 UNK         0.0209 
     33 CB         24.9663   -5.4885   -3.7991 C.3       2 UNK        -0.1931 
     34 N          26.6448   -4.1913   -2.5591 N.am      2 UNK        -0.4546 
     35 C          27.2777   -4.8139   -1.5580 C.2       1 UNK         0.5154 
     36 O          26.7105   -5.5846   -0.7812 O.2       1 UNK        -0.5181 
     37 C          27.0735    1.6960   -6.3470 C.2       5 UNK         0.5014 
     38 O          27.9829    2.4234   -6.7418 O.2       5 UNK        -0.5248 
     39 N          25.8927    2.1684   -5.9149 N.am      6 UNK        -0.4434 
     40 CA         25.5190    3.5853   -5.9315 C.3       6 UNK         0.0363 
     41 CB         24.1974    3.7730   -5.1707 C.3       6 UNK        -0.1936 
     42 C          25.4114    4.1726   -7.3524 C.2       6 UNK         0.5081 
     43 O          25.5971    5.3790   -7.5145 O.2       6 UNK        -0.5248 
     44 N          25.1258    3.3211   -8.3473 N.am      7 UNK        -0.4718 
     45 CA         25.0861    3.6794   -9.7646 C.3       7 UNK         0.0273 
     46 CB         23.8214    3.0799  -10.4019 C.3       7 UNK        -0.1935 
     47 C          26.3419    3.1846  -10.4972 C.2       7 UNK         0.5018 
     48 O          26.9034    3.9285  -11.3018 O.2       7 UNK        -0.5186 
     49 N          26.7515    1.9379  -10.2240 N.am      8 UNK        -0.4240 
     50 CA         27.8310    1.2457  -10.9319 C.3       8 UNK         0.0235 
     51 CB         27.6215   -0.2716  -10.7830 C.3       8 UNK        -0.2000 
     52 C          29.2502    1.6257  -10.4761 C.2       8 UNK         0.4941 
     53 O          30.2025    1.2616  -11.1684 O.2       8 UNK        -0.5273 
     54 N          29.3914    2.2761   -9.3105 N.am      9 UNK        -0.4262 
     55 CA         30.6319    2.5699   -8.5717 C.3       9 UNK         0.0264 
     56 CB         31.6350    3.4007   -9.3974 C.3       9 UNK        -0.1955 
     57 C          31.2783    1.3057   -7.9752 C.2       9 UNK         0.5031 
     58 O          31.5032    1.2603   -6.7654 O.2       9 UNK        -0.5390 
     59 N          31.5016    0.2965   -8.8286 N.am      10 UNK        -0.4204 
     60 CA         31.9550   -1.0664   -8.5356 C.3       10 UNK         0.0237 
     61 CB         30.9028   -1.7881   -7.6651 C.3       10 UNK        -0.1985 
     62 C          33.3766   -1.1517   -7.9406 C.2       10 UNK         0.4970 
     63 O          34.1040   -0.1561   -7.9004 O.2       10 UNK        -0.4914 
     64 N          33.7479   -2.3702   -7.5258 N.am      11 UNK        -0.4285 
     65 CA         35.0457   -2.7483   -6.9415 C.3       11 UNK         0.1007 
     66 C          36.2408   -2.5717   -7.9298 C.2       11 UNK         0.5703 
     67 N          37.4724   -2.4805   -7.4439 N.am      11 UNK        -0.7361 
     68 O          36.0700   -2.5757   -9.1483 O.2       11 UNK        -0.4986 
     69 C69        35.2841   -2.1244   -5.5332 C.3       12 UNK        -0.0947 
     70 S70        33.9095   -2.4394   -4.3725 S.3       12 UNK        -0.2240 
     71 C71        33.5214   -0.7403   -3.8523 C.3       12 UNK         0.0194 
     72 H72        29.6701   -3.5197   -5.6402 H         1 UNK         0.0906 
     73 H73        31.2759   -3.9831   -5.0680 H         1 UNK         0.0906 
     74 H74        30.4905   -2.5452   -4.4147 H         1 UNK         0.0906 
     75 H75        29.6538   -2.8859   -2.3655 H         1 UNK         0.3140 
     76 H76        29.2550   -5.5307   -1.3059 H         1 UNK         0.1085 
     77 H77        28.5840   -4.3147    0.7864 H         1 UNK         0.0836 
     78 H78        28.6507   -2.7979   -0.0690 H         1 UNK         0.0836 
     79 H79        30.4442   -1.5066    1.1523 H         1 UNK         0.0731 
     80 H80        32.1475   -1.8109    0.9488 H         1 UNK         0.0731 
     81 H81        33.1398   -1.9275   -1.4145 H         1 UNK         0.1312 
     82 H82        31.2060    0.6219   -4.2680 H         1 UNK         0.1406 
     83 H83        29.2078   -0.4026   -0.6183 H         1 UNK         0.1631 
     84 H84        29.1724    1.8016   -3.6251 H         1 UNK         0.0717 
     85 H85        28.5094    1.5822   -2.0257 H         1 UNK         0.0717 
     86 H86        29.1739    0.0581   -5.3706 H         1 UNK         0.0934 
     87 H87        28.2869   -1.4322   -5.3335 H         1 UNK         0.0934 
     88 H88        27.8097   -0.0307   -7.3292 H         1 UNK         0.0739 
     89 H89        25.8083   -1.2175   -5.7304 H         1 UNK         0.3093 
     90 H90        23.0194   -0.6257   -7.8242 H         1 UNK         0.0818 
     91 H91        24.1704   -2.3331   -9.2534 H         1 UNK         0.0819 
     92 H92        24.6446   -3.2295   -7.8168 H         1 UNK         0.0819 
     93 H93        22.9393   -3.0713   -8.2433 H         1 UNK         0.0819 
     94 H94        23.3655   -2.5568   -5.7816 H         1 UNK         0.3041 
     95 H95        23.4648   -0.5271   -2.9385 H         1 UNK         0.0784 
     96 H96        21.0296   -0.2677   -3.4961 H         1 UNK         0.0793 
     97 H97        20.9440   -1.9755   -3.9056 H         1 UNK         0.0793 
     98 H98        21.2941   -1.4736   -2.2504 H         1 UNK         0.0793 
     99 H99        22.9574   -3.1488   -2.7386 H         1 UNK         0.3024 
    100 H100       24.6558   -4.4134   -1.9420 H         1 UNK         0.1171 
    101 H101       23.9085   -5.5724   -4.0516 H         1 UNK         0.0786 
    102 H102       25.5213   -5.3961   -4.7338 H         1 UNK         0.0786 
    103 H103       25.2618   -6.4259   -3.3274 H         1 UNK         0.0786 
    104 H104       27.1546   -3.5343   -3.1373 H         1 UNK         0.2977 
    105 H105       25.1793    1.5128   -5.6144 H         1 UNK         0.3127 
    106 H106       26.2986    4.1404   -5.4054 H         1 UNK         0.0770 
    107 H107       23.3742    3.2495   -5.6587 H         1 UNK         0.0814 
    108 H108       23.9256    4.8280   -5.1158 H         1 UNK         0.0814 
    109 H109       24.2705    3.4029   -4.1479 H         1 UNK         0.0814 
    110 H110       25.0143    2.3377   -8.1269 H         1 UNK         0.2983 
    111 H111       25.0397    4.7645   -9.8830 H         1 UNK         0.0947 
    112 H112       23.7665    3.3230  -11.4640 H         1 UNK         0.0806 
    113 H113       22.9194    3.4733   -9.9330 H         1 UNK         0.0806 
    114 H114       23.7965    1.9927  -10.3134 H         1 UNK         0.0806 
    115 H115       26.2117    1.3762   -9.5669 H         1 UNK         0.3000 
    116 H116       27.7596    1.4928  -11.9935 H         1 UNK         0.0850 
    117 H117       28.3672   -0.8293  -11.3514 H         1 UNK         0.0810 
    118 H118       26.6416   -0.5752  -11.1522 H         1 UNK         0.0810 
    119 H119       27.6995   -0.5907   -9.7433 H         1 UNK         0.0810 
    120 H120       28.5501    2.4756   -8.7805 H         1 UNK         0.3040 
    121 H121       30.3273    3.1912   -7.7281 H         1 UNK         0.0766 
    122 H122       32.0420    2.8445  -10.2417 H         1 UNK         0.0812 
    123 H123       32.4801    3.7060   -8.7793 H         1 UNK         0.0812 
    124 H124       31.1719    4.3080   -9.7852 H         1 UNK         0.0812 
    125 H125       31.2708    0.4851   -9.8017 H         1 UNK         0.3205 
    126 H126       31.9970   -1.5741   -9.5004 H         1 UNK         0.0754 
    127 H127       31.0830   -2.8623   -7.6250 H         1 UNK         0.0769 
    128 H128       29.8969   -1.6525   -8.0630 H         1 UNK         0.0769 
    129 H129       30.9100   -1.4115   -6.6417 H         1 UNK         0.0769 
    130 H130       33.0963   -3.1312   -7.6409 H         1 UNK         0.2981 
    131 H131       34.9778   -3.8274   -6.8002 H         1 UNK         0.0541 
    132 H132       37.6444   -2.4978   -6.4513 H         1 UNK         0.3459 
    133 H133       38.2449   -2.3890   -8.0851 H         1 UNK         0.3459 
    134 H134       35.4595   -1.0509   -5.6209 H         1 UNK         0.0612 
    135 H135       36.1811   -2.5424   -5.0746 H         1 UNK         0.0612 
    136 H136       34.3796   -0.3211   -3.3255 H         1 UNK         0.0624 
    137 H137       33.3704   -0.1283   -4.7437 H         1 UNK         0.0624 
@<TRIPOS>BOND
     1    1    2 1    
     2    1   72 1    
     3    1   73 1    
     4    1   74 1    
     5    2    3 2    
     6    2    4 am   BACKBONE|DICT|INTERRES
     7    4    5 1    
     8    4   75 1    
     9    5    6 1    
    10    5   35 1    
    11    5   76 1    
    12    6    7 1    
    13    6   77 1    
    14    6   78 1    
    15    7    8 1    
    16    8    9 1    
    17    8   79 1    
    18    8   80 1    
    19    9   10 ar   
    20    9   14 ar   
    21   10   11 ar   
    22   10   81 1    
    23   11   12 ar   
    24   11   71 1    
    25   12   13 ar   
    26   12   82 1    
    27   13   14 ar   
    28   13   15 1    
    29   14   83 1    
    30   15   16 1    
    31   15   84 1    
    32   15   85 1    
    33   16   17 1    
    34   17   18 1    
    35   17   86 1    
    36   17   87 1    
    37   18   19 1    
    38   18   37 1    
    39   18   88 1    
    40   19   20 am   BACKBONE|DICT|INTERRES
    41   19   89 1    
    42   20   21 2    
    43   20   22 1    
    44   22   23 1    
    45   22   24 1    
    46   22   90 1    
    47   23   91 1    
    48   23   92 1    
    49   23   93 1    
    50   24   25 am   BACKBONE|DICT|INTERRES
    51   24   94 1    
    52   25   26 2    
    53   25   27 1    
    54   27   28 1    
    55   27   29 1    
    56   27   95 1    
    57   28   96 1    
    58   28   97 1    
    59   28   98 1    
    60   29   30 am   BACKBONE|DICT|INTERRES
    61   29   99 1    
    62   30   31 2    
    63   30   32 1    
    64   32   33 1    
    65   32   34 1    
    66   32  100 1    
    67   33  101 1    
    68   33  102 1    
    69   33  103 1    
    70   34   35 am   BACKBONE|DICT|INTERRES
    71   34  104 1    
    72   35   36 2    
    73   37   38 2    
    74   37   39 am   BACKBONE|DICT|INTERRES
    75   39   40 1    
    76   39  105 1    
    77   40   41 1    
    78   40   42 1    
    79   40  106 1    
    80   41  107 1    
    81   41  108 1    
    82   41  109 1    
    83   42   43 2    
    84   42   44 am   BACKBONE|DICT|INTERRES
    85   44   45 1    
    86   44  110 1    
    87   45   46 1    
    88   45   47 1    
    89   45  111 1    
    90   46  112 1    
    91   46  113 1    
    92   46  114 1    
    93   47   48 2    
    94   47   49 am   BACKBONE|DICT|INTERRES
    95   49   50 1    
    96   49  115 1    
    97   50   51 1    
    98   50   52 1    
    99   50  116 1    
   100   51  117 1    
   101   51  118 1    
   102   51  119 1    
   103   52   53 2    
   104   52   54 am   BACKBONE|DICT|INTERRES
   105   54   55 1    
   106   54  120 1    
   107   55   56 1    
   108   55   57 1    
   109   55  121 1    
   110   56  122 1    
   111   56  123 1    
   112   56  124 1    
   113   57   58 2    
   114   57   59 am   BACKBONE|DICT|INTERRES
   115   59   60 1    
   116   59  125 1    
   117   60   61 1    
   118   60   62 1    
   119   60  126 1    
   120   61  127 1    
   121   61  128 1    
   122   61  129 1    
   123   62   63 2    
   124   62   64 am   BACKBONE|DICT|INTERRES
   125   64   65 1    
   126   64  130 1    
   127   65   66 1    
   128   65   69 1    
   129   65  131 1    
   130   66   67 am   BACKBONE|DICT|INTERRES
   131   66   68 2    
   132   67  132 1    
   133   67  133 1    
   134   69   70 1    
   135   69  134 1    
   136   69  135 1    
   137   70   71 1    
   138   71  136 1    
   139   71  137 1    
@<TRIPOS>SUBSTRUCTURE
     1 UNK         1 GROUP             0       ****    0 ROOT    
