@<TRIPOS>MOLECULE
3R137
137   139    1
SMALL
USER_CHARGES


@<TRIPOS>ATOM
      1 CA         27.1087   -5.5378   -4.1038 C.3       0 UNK        -0.2020 
      2 C          26.9453   -5.6782   -2.5911 C.2       0 UNK         0.4855 
      3 O          26.2812   -6.6167   -2.1565 O.2       0 UNK        -0.5197 
      4 N          27.5128   -4.8116   -1.7370 N.am      1 UNK        -0.4892 
      5 CA         28.3021   -3.5992   -2.0008 C.3       1 UNK         0.0835 
      6 C6         29.6458   -3.8451   -2.7382 C.3       12 UNK        -0.0855 
      7 S7         30.8408   -4.7704   -1.7075 S.3       12 UNK        -0.2931 
      8 C8         31.3799   -3.5302   -0.4710 C.3       12 UNK         0.0378 
      9 C9         31.6964   -2.1837   -1.1054 C.ar      12 UNK        -0.0802 
     10 C10        32.8106   -2.0523   -1.9364 C.ar      12 UNK        -0.0944 
     11 C11        33.0298   -0.8705   -2.6519 C.ar      12 UNK        -0.0787 
     12 C12        32.1631    0.2111   -2.4644 C.ar      12 UNK        -0.0862 
     13 C13        31.0579    0.1017   -1.6144 C.ar      12 UNK        -0.0733 
     14 C14        30.8329   -1.0968   -0.9318 C.ar      12 UNK        -0.0832 
     15 C15        30.0879    1.2651   -1.4555 C.3       12 UNK         0.0240 
     16 S16        28.6715    1.1308   -2.5961 S.3       12 UNK        -0.2522 
     17 C17        29.4695    1.5289   -4.1860 C.3       12 UNK        -0.0967 
     18 CA         28.5377    1.5157   -5.4198 C.3       5 UNK         0.0660 
     19 N          27.9920    0.1888   -5.7201 N.am      5 UNK        -0.4015 
     20 C          27.5662   -0.1586   -6.9437 C.2       4 UNK         0.4946 
     21 O          27.4015    0.6472   -7.8605 O.2       4 UNK        -0.5353 
     22 CA         27.2899   -1.6455   -7.1964 C.3       4 UNK         0.0277 
     23 CB         28.5714   -2.4856   -7.0477 C.3       4 UNK        -0.1981 
     24 N          26.2609   -2.1275   -6.2827 N.am      4 UNK        -0.4209 
     25 C          24.9534   -2.1718   -6.5770 C.2       3 UNK         0.4942 
     26 O          24.4933   -1.9405   -7.6955 O.2       3 UNK        -0.5208 
     27 CA         23.9783   -2.5205   -5.4349 C.3       3 UNK         0.0250 
     28 CB         23.5466   -3.9932   -5.5253 C.3       3 UNK        -0.1990 
     29 N          24.4961   -2.2517   -4.0896 N.am      3 UNK        -0.4232 
     30 C          24.8789   -1.0482   -3.6404 C.2       2 UNK         0.4993 
     31 O          24.8516   -0.0209   -4.3141 O.2       2 UNK        -0.5286 
     32 CA         25.4702   -0.9977   -2.2265 C.3       2 UNK         0.0209 
     33 CB         24.3524   -0.9158   -1.1750 C.3       2 UNK        -0.1931 
     34 N          26.3669   -2.1166   -1.9116 N.am      2 UNK        -0.4546 
     35 C          27.4451   -2.4816   -2.6233 C.2       1 UNK         0.5154 
     36 O          27.7433   -2.0012   -3.7203 O.2       1 UNK        -0.5181 
     37 C          27.4968    2.6543   -5.4186 C.2       5 UNK         0.5014 
     38 O          27.8501    3.7655   -5.8168 O.2       5 UNK        -0.5248 
     39 N          26.2347    2.3845   -5.0446 N.am      6 UNK        -0.4434 
     40 CA         25.1490    3.3736   -5.1248 C.3       6 UNK         0.0363 
     41 CB         23.9792    2.9657   -4.2152 C.3       6 UNK        -0.1936 
     42 C          24.6613    3.5932   -6.5683 C.2       6 UNK         0.5081 
     43 O          24.1237    4.6590   -6.8680 O.2       6 UNK        -0.5248 
     44 N          24.8869    2.6029   -7.4431 N.am      7 UNK        -0.4718 
     45 CA         24.6644    2.6902   -8.8889 C.3       7 UNK         0.0273 
     46 CB         24.3394    1.2849   -9.4252 C.3       7 UNK        -0.1935 
     47 C          25.8685    3.3007   -9.6358 C.2       7 UNK         0.5018 
     48 O          25.7940    3.4583  -10.8550 O.2       7 UNK        -0.5186 
     49 N          26.9482    3.6201   -8.9033 N.am      8 UNK        -0.4240 
     50 CA         28.2352    4.1481   -9.3680 C.3       8 UNK         0.0235 
     51 CB         28.0680    5.5471   -9.9997 C.3       8 UNK        -0.2000 
     52 C          29.0162    3.1683  -10.2670 C.2       8 UNK         0.4941 
     53 O          29.8009    3.6101  -11.1093 O.2       8 UNK        -0.5273 
     54 N          28.8112    1.8605  -10.0648 N.am      9 UNK        -0.4262 
     55 CA         29.5725    0.7918  -10.7077 C.3       9 UNK         0.0264 
     56 CB         28.6392   -0.4069  -10.9471 C.3       9 UNK        -0.1955 
     57 C          30.7552    0.3857   -9.8156 C.2       9 UNK         0.5031 
     58 O          30.7464    0.6548   -8.6106 O.2       9 UNK        -0.5390 
     59 N          31.7458   -0.2834  -10.4186 N.am      10 UNK        -0.4204 
     60 CA         32.8775   -0.8825   -9.7093 C.3       10 UNK         0.0237 
     61 CB         33.9474   -1.3180  -10.7240 C.3       10 UNK        -0.1985 
     62 C          32.4116   -2.0771   -8.8615 C.2       10 UNK         0.4970 
     63 O          31.6429   -2.9057   -9.3550 O.2       10 UNK        -0.4914 
     64 N          32.8862   -2.1427   -7.6139 N.am      11 UNK        -0.4285 
     65 CA         32.5255   -3.1876   -6.6447 C.3       11 UNK         0.1007 
     66 C          33.2011   -4.5728   -6.8716 C.2       11 UNK         0.5703 
     67 N          34.1709   -4.7022   -7.7699 N.am      11 UNK        -0.7361 
     68 O          32.8247   -5.5521   -6.2323 O.2       11 UNK        -0.4986 
     69 C69        32.6723   -2.6783   -5.1891 C.3       12 UNK        -0.0947 
     70 S70        34.3867   -2.2561   -4.7036 S.3       12 UNK        -0.2240 
     71 C71        34.1633   -0.7620   -3.6702 C.3       12 UNK         0.0194 
     72 H72        27.1339   -4.5065   -4.4443 H         1 UNK         0.0906 
     73 H73        28.0226   -6.0343   -4.4280 H         1 UNK         0.0906 
     74 H74        26.2780   -6.0243   -4.6141 H         1 UNK         0.0906 
     75 H75        27.3736   -4.9976   -0.7532 H         1 UNK         0.3140 
     76 H76        28.5578   -3.2073   -1.0160 H         1 UNK         0.1085 
     77 H77        30.1041   -2.9048   -3.0477 H         1 UNK         0.0836 
     78 H78        29.4992   -4.3924   -3.6675 H         1 UNK         0.0836 
     79 H79        32.2655   -3.9054    0.0439 H         1 UNK         0.0731 
     80 H80        30.6080   -3.4259    0.2928 H         1 UNK         0.0731 
     81 H81        33.4654   -2.9006   -2.0811 H         1 UNK         0.1312 
     82 H82        32.3285    1.1314   -3.0077 H         1 UNK         0.1406 
     83 H83        29.9643   -1.1905   -0.2946 H         1 UNK         0.1631 
     84 H84        30.5987    2.2160   -1.6146 H         1 UNK         0.0717 
     85 H85        29.7116    1.2916   -0.4318 H         1 UNK         0.0717 
     86 H86        29.9588    2.5008   -4.0965 H         1 UNK         0.0934 
     87 H87        30.2702    0.8086   -4.3554 H         1 UNK         0.0934 
     88 H88        29.1936    1.7498   -6.2630 H         1 UNK         0.0739 
     89 H89        28.0491   -0.5106   -4.9849 H         1 UNK         0.3093 
     90 H90        26.9476   -1.7499   -8.2279 H         1 UNK         0.0818 
     91 H91        28.9756   -2.4553   -6.0356 H         1 UNK         0.0819 
     92 H92        28.3893   -3.5298   -7.3012 H         1 UNK         0.0819 
     93 H93        29.3506   -2.1213   -7.7191 H         1 UNK         0.0819 
     94 H94        26.5498   -2.2696   -5.3212 H         1 UNK         0.3041 
     95 H95        23.0930   -1.8957   -5.5713 H         1 UNK         0.0784 
     96 H96        24.3880   -4.6705   -5.3799 H         1 UNK         0.0793 
     97 H97        23.1173   -4.2140   -6.5038 H         1 UNK         0.0793 
     98 H98        22.7875   -4.2326   -4.7804 H         1 UNK         0.0793 
     99 H99        24.5691   -3.0387   -3.4618 H         1 UNK         0.3024 
    100 H100       26.0589   -0.0811   -2.1622 H         1 UNK         0.1171 
    101 H101       24.7584   -0.7557   -0.1760 H         1 UNK         0.0786 
    102 H102       23.6800   -0.0824   -1.3850 H         1 UNK         0.0786 
    103 H103       23.7490   -1.8241   -1.1516 H         1 UNK         0.0786 
    104 H104       26.1841   -2.6011   -1.0444 H         1 UNK         0.2977 
    105 H105       25.9718    1.4442   -4.7544 H         1 UNK         0.3127 
    106 H106       25.5319    4.3286   -4.7581 H         1 UNK         0.0770 
    107 H107       23.4431    2.1007   -4.6064 H         1 UNK         0.0814 
    108 H108       23.2558    3.7776   -4.1317 H         1 UNK         0.0814 
    109 H109       24.3187    2.7268   -3.2073 H         1 UNK         0.0814 
    110 H110       25.3552    1.7684   -7.1149 H         1 UNK         0.2983 
    111 H111       23.8042    3.3349   -9.0822 H         1 UNK         0.0947 
    112 H112       24.1023    1.3169  -10.4893 H         1 UNK         0.0806 
    113 H113       23.4775    0.8537   -8.9155 H         1 UNK         0.0806 
    114 H114       25.1768    0.5977   -9.3007 H         1 UNK         0.0806 
    115 H115       26.9000    3.4334   -7.9101 H         1 UNK         0.3000 
    116 H116       28.8440    4.2682   -8.4705 H         1 UNK         0.0850 
    117 H117       29.0377    6.0058  -10.1968 H         1 UNK         0.0810 
    118 H118       27.5229    6.2190   -9.3368 H         1 UNK         0.0810 
    119 H119       27.5326    5.5024  -10.9485 H         1 UNK         0.0810 
    120 H120       28.2141    1.5679   -9.2931 H         1 UNK         0.3040 
    121 H121       29.9565    1.1333  -11.6714 H         1 UNK         0.0766 
    122 H122       28.2774   -0.8290  -10.0102 H         1 UNK         0.0812 
    123 H123       29.1524   -1.2051  -11.4846 H         1 UNK         0.0812 
    124 H124       27.7712   -0.1210  -11.5417 H         1 UNK         0.0812 
    125 H125       31.6626   -0.4988  -11.4017 H         1 UNK         0.3205 
    126 H126       33.3101   -0.1229   -9.0541 H         1 UNK         0.0754 
    127 H127       34.2989   -0.4736  -11.3175 H         1 UNK         0.0769 
    128 H128       33.5696   -2.0772  -11.4104 H         1 UNK         0.0769 
    129 H129       34.8167   -1.7400  -10.2178 H         1 UNK         0.0769 
    130 H130       33.5316   -1.4404   -7.2837 H         1 UNK         0.2981 
    131 H131       31.4602   -3.3822   -6.7819 H         1 UNK         0.0541 
    132 H132       34.4866   -3.9061   -8.2991 H         1 UNK         0.3459 
    133 H133       34.5948   -5.6053   -7.9118 H         1 UNK         0.3459 
    134 H134       32.0368   -1.8010   -5.0575 H         1 UNK         0.0612 
    135 H135       32.2917   -3.4228   -4.4874 H         1 UNK         0.0612 
    136 H136       33.9915    0.0834   -4.3383 H         1 UNK         0.0624 
    137 H137       35.0950   -0.5565   -3.1421 H         1 UNK         0.0624 
@<TRIPOS>BOND
     1    1    2 1    
     2    1   72 1    
     3    1   73 1    
     4    1   74 1    
     5    2    3 2    
     6    2    4 am   BACKBONE|DICT|INTERRES
     7    4    5 1    
     8    4   75 1    
     9    5    6 1    
    10    5   35 1    
    11    5   76 1    
    12    6    7 1    
    13    6   77 1    
    14    6   78 1    
    15    7    8 1    
    16    8    9 1    
    17    8   79 1    
    18    8   80 1    
    19    9   10 ar   
    20    9   14 ar   
    21   10   11 ar   
    22   10   81 1    
    23   11   12 ar   
    24   11   71 1    
    25   12   13 ar   
    26   12   82 1    
    27   13   14 ar   
    28   13   15 1    
    29   14   83 1    
    30   15   16 1    
    31   15   84 1    
    32   15   85 1    
    33   16   17 1    
    34   17   18 1    
    35   17   86 1    
    36   17   87 1    
    37   18   19 1    
    38   18   37 1    
    39   18   88 1    
    40   19   20 am   BACKBONE|DICT|INTERRES
    41   19   89 1    
    42   20   21 2    
    43   20   22 1    
    44   22   23 1    
    45   22   24 1    
    46   22   90 1    
    47   23   91 1    
    48   23   92 1    
    49   23   93 1    
    50   24   25 am   BACKBONE|DICT|INTERRES
    51   24   94 1    
    52   25   26 2    
    53   25   27 1    
    54   27   28 1    
    55   27   29 1    
    56   27   95 1    
    57   28   96 1    
    58   28   97 1    
    59   28   98 1    
    60   29   30 am   BACKBONE|DICT|INTERRES
    61   29   99 1    
    62   30   31 2    
    63   30   32 1    
    64   32   33 1    
    65   32   34 1    
    66   32  100 1    
    67   33  101 1    
    68   33  102 1    
    69   33  103 1    
    70   34   35 am   BACKBONE|DICT|INTERRES
    71   34  104 1    
    72   35   36 2    
    73   37   38 2    
    74   37   39 am   BACKBONE|DICT|INTERRES
    75   39   40 1    
    76   39  105 1    
    77   40   41 1    
    78   40   42 1    
    79   40  106 1    
    80   41  107 1    
    81   41  108 1    
    82   41  109 1    
    83   42   43 2    
    84   42   44 am   BACKBONE|DICT|INTERRES
    85   44   45 1    
    86   44  110 1    
    87   45   46 1    
    88   45   47 1    
    89   45  111 1    
    90   46  112 1    
    91   46  113 1    
    92   46  114 1    
    93   47   48 2    
    94   47   49 am   BACKBONE|DICT|INTERRES
    95   49   50 1    
    96   49  115 1    
    97   50   51 1    
    98   50   52 1    
    99   50  116 1    
   100   51  117 1    
   101   51  118 1    
   102   51  119 1    
   103   52   53 2    
   104   52   54 am   BACKBONE|DICT|INTERRES
   105   54   55 1    
   106   54  120 1    
   107   55   56 1    
   108   55   57 1    
   109   55  121 1    
   110   56  122 1    
   111   56  123 1    
   112   56  124 1    
   113   57   58 2    
   114   57   59 am   BACKBONE|DICT|INTERRES
   115   59   60 1    
   116   59  125 1    
   117   60   61 1    
   118   60   62 1    
   119   60  126 1    
   120   61  127 1    
   121   61  128 1    
   122   61  129 1    
   123   62   63 2    
   124   62   64 am   BACKBONE|DICT|INTERRES
   125   64   65 1    
   126   64  130 1    
   127   65   66 1    
   128   65   69 1    
   129   65  131 1    
   130   66   67 am   BACKBONE|DICT|INTERRES
   131   66   68 2    
   132   67  132 1    
   133   67  133 1    
   134   69   70 1    
   135   69  134 1    
   136   69  135 1    
   137   70   71 1    
   138   71  136 1    
   139   71  137 1    
@<TRIPOS>SUBSTRUCTURE
     1 UNK         1 GROUP             0       ****    0 ROOT    
