@<TRIPOS>MOLECULE
3R137
137   139    1
SMALL
USER_CHARGES


@<TRIPOS>ATOM
      1 CA         25.0940   -5.3362    2.1089 C.3       0 UNK        -0.2020 
      2 C          25.5315   -3.9196    1.7677 C.2       0 UNK         0.4855 
      3 O          25.0579   -2.9676    2.3882 O.2       0 UNK        -0.5197 
      4 N          26.4341   -3.7737    0.7880 N.am      1 UNK        -0.4892 
      5 CA         26.9479   -2.4831    0.3055 C.3       1 UNK         0.0835 
      6 C6         28.2254   -2.6759   -0.5508 C.3       12 UNK        -0.0855 
      7 S7         29.4374   -1.3278   -0.3444 S.3       12 UNK        -0.2931 
      8 C8         30.9555   -2.1110   -0.9843 C.3       12 UNK         0.0378 
      9 C9         30.9165   -2.2643   -2.4988 C.ar      12 UNK        -0.0802 
     10 C10        31.5191   -1.3100   -3.3233 C.ar      12 UNK        -0.0944 
     11 C11        31.4622   -1.4353   -4.7156 C.ar      12 UNK        -0.0787 
     12 C12        30.7895   -2.5235   -5.2821 C.ar      12 UNK        -0.0862 
     13 C13        30.1815   -3.4824   -4.4662 C.ar      12 UNK        -0.0733 
     14 C14        30.2689   -3.3582   -3.0783 C.ar      12 UNK        -0.0832 
     15 C15        29.4171   -4.6519   -5.0660 C.3       12 UNK         0.0240 
     16 S16        27.6569   -4.2421   -5.3097 S.3       12 UNK        -0.2522 
     17 C17        27.6589   -3.6227   -7.0275 C.3       12 UNK        -0.0967 
     18 CA         27.0160   -2.2311   -7.2367 C.3       5 UNK         0.0660 
     19 N          25.6056   -2.1585   -6.8546 N.am      5 UNK        -0.4015 
     20 C          24.5947   -2.1941   -7.7344 C.2       4 UNK         0.4946 
     21 O          24.7236   -2.5248   -8.9141 O.2       4 UNK        -0.5353 
     22 CA         23.2012   -1.7502   -7.2463 C.3       4 UNK         0.0277 
     23 CB         22.3362   -2.9773   -6.9148 C.3       4 UNK        -0.1981 
     24 N          23.2135   -0.8495   -6.0897 N.am      4 UNK        -0.4209 
     25 C          23.8832    0.3085   -5.9785 C.2       3 UNK         0.4942 
     26 O          24.5403    0.8189   -6.8853 O.2       3 UNK        -0.5208 
     27 CA         23.8846    0.9775   -4.5923 C.3       3 UNK         0.0250 
     28 CB         22.8491    2.1122   -4.5465 C.3       3 UNK        -0.1990 
     29 N          23.6493    0.0626   -3.4656 N.am      3 UNK        -0.4232 
     30 C          24.3572   -1.0398   -3.1754 C.2       2 UNK         0.4993 
     31 O          25.2848   -1.4699   -3.8692 O.2       2 UNK        -0.5286 
     32 CA         23.8861   -1.8377   -1.9511 C.3       2 UNK         0.0209 
     33 CB         22.9622   -2.9845   -2.3931 C.3       2 UNK        -0.1931 
     34 N          25.0035   -2.3946   -1.1904 N.am      2 UNK        -0.4546 
     35 C          25.8698   -1.6797   -0.4571 C.2       1 UNK         0.5154 
     36 O          25.8160   -0.4545   -0.3382 O.2       1 UNK        -0.5181 
     37 C          27.8229   -1.0723   -6.6266 C.2       5 UNK         0.5014 
     38 O          28.6894   -0.5402   -7.3218 O.2       5 UNK        -0.5248 
     39 N          27.5157   -0.6458   -5.3906 N.am      6 UNK        -0.4434 
     40 CA         28.2575    0.3973   -4.6698 C.3       6 UNK         0.0363 
     41 CB         27.7701    0.4736   -3.2162 C.3       6 UNK        -0.1936 
     42 C          28.2413    1.7898   -5.3239 C.2       6 UNK         0.5081 
     43 O          29.1388    2.5856   -5.0458 O.2       6 UNK        -0.5248 
     44 N          27.2492    2.0595   -6.1811 N.am      7 UNK        -0.4718 
     45 CA         27.1297    3.2902   -6.9618 C.3       7 UNK         0.0273 
     46 CB         25.9023    4.0762   -6.4631 C.3       7 UNK        -0.1935 
     47 C          27.0512    2.9915   -8.4704 C.2       7 UNK         0.5018 
     48 O          26.5541    3.8377   -9.2164 O.2       7 UNK        -0.5186 
     49 N          27.5232    1.8114   -8.9035 N.am      8 UNK        -0.4240 
     50 CA         27.4409    1.3617  -10.2972 C.3       8 UNK         0.0235 
     51 CB         26.2409    0.4149  -10.4650 C.3       8 UNK        -0.2000 
     52 C          28.7332    0.7077  -10.8074 C.2       8 UNK         0.4941 
     53 O          29.0630    0.8960  -11.9798 O.2       8 UNK        -0.5273 
     54 N          29.4419   -0.0497   -9.9586 N.am      9 UNK        -0.4262 
     55 CA         30.7071   -0.6981  -10.3082 C.3       9 UNK         0.0264 
     56 CB         30.9767   -1.8479   -9.3254 C.3       9 UNK        -0.1955 
     57 C          31.8688    0.3062  -10.2872 C.2       9 UNK         0.5031 
     58 O          31.8522    1.2565   -9.4994 O.2       9 UNK        -0.5390 
     59 N          32.8850    0.0517  -11.1202 N.am      10 UNK        -0.4204 
     60 CA         34.0932    0.8702  -11.2633 C.3       10 UNK         0.0237 
     61 CB         34.7010    0.6194  -12.6570 C.3       10 UNK        -0.1985 
     62 C          35.1063    0.6413  -10.1217 C.2       10 UNK         0.4970 
     63 O          36.2689    0.3246  -10.3826 O.2       10 UNK        -0.4914 
     64 N          34.6456    0.7963   -8.8763 N.am      11 UNK        -0.4285 
     65 CA         35.4664    0.7568   -7.6591 C.3       11 UNK         0.1007 
     66 C          36.4442    1.9615   -7.5715 C.2       11 UNK         0.5703 
     67 N          37.6154    1.7672   -6.9806 N.am      11 UNK        -0.7361 
     68 O          36.1370    3.0745   -7.9963 O.2       11 UNK        -0.4986 
     69 C69        34.5853    0.6747   -6.3873 C.3       12 UNK        -0.0947 
     70 S70        33.6924   -0.9104   -6.2571 S.3       12 UNK        -0.2240 
     71 C71        32.0869   -0.3658   -5.5995 C.3       12 UNK         0.0194 
     72 H72        25.3171   -5.5565    3.1525 H         1 UNK         0.0906 
     73 H73        24.0197   -5.4427    1.9606 H         1 UNK         0.0906 
     74 H74        25.5967   -6.0800    1.4910 H         1 UNK         0.0906 
     75 H75        26.7932   -4.5961    0.3234 H         1 UNK         0.3140 
     76 H76        27.2083   -1.9007    1.1928 H         1 UNK         0.1085 
     77 H77        27.9819   -2.7904   -1.6091 H         1 UNK         0.0836 
     78 H78        28.7306   -3.5983   -0.2596 H         1 UNK         0.0836 
     79 H79        31.8119   -1.5003   -0.6940 H         1 UNK         0.0731 
     80 H80        31.1034   -3.0817   -0.5086 H         1 UNK         0.0731 
     81 H81        32.0211   -0.4607   -2.8802 H         1 UNK         0.1312 
     82 H82        30.7259   -2.6149   -6.3563 H         1 UNK         0.1406 
     83 H83        29.8075   -4.1055   -2.4482 H         1 UNK         0.1631 
     84 H84        29.4798   -5.5121   -4.3977 H         1 UNK         0.0717 
     85 H85        29.8745   -4.9732   -6.0028 H         1 UNK         0.0717 
     86 H86        28.6762   -3.6155   -7.4213 H         1 UNK         0.0934 
     87 H87        27.1248   -4.3543   -7.6359 H         1 UNK         0.0934 
     88 H88        27.0816   -2.0483   -8.3109 H         1 UNK         0.0739 
     89 H89        25.4051   -1.9228   -5.8890 H         1 UNK         0.3093 
     90 H90        22.7322   -1.2081   -8.0699 H         1 UNK         0.0818 
     91 H91        21.3133   -2.6899   -6.6704 H         1 UNK         0.0819 
     92 H92        22.2833   -3.6591   -7.7650 H         1 UNK         0.0819 
     93 H93        22.7398   -3.5394   -6.0714 H         1 UNK         0.0819 
     94 H94        22.7102   -1.1686   -5.2756 H         1 UNK         0.3041 
     95 H95        24.8731    1.4177   -4.4535 H         1 UNK         0.0784 
     96 H96        23.0013    2.8168   -5.3653 H         1 UNK         0.0793 
     97 H97        21.8299    1.7329   -4.6305 H         1 UNK         0.0793 
     98 H98        22.9223    2.6798   -3.6186 H         1 UNK         0.0793 
     99 H99        22.8918    0.3183   -2.8479 H         1 UNK         0.3024 
    100 H100       23.3290   -1.1734   -1.2862 H         1 UNK         0.1171 
    101 H101       22.0915   -2.6041   -2.9290 H         1 UNK         0.0786 
    102 H102       22.5908   -3.5480   -1.5367 H         1 UNK         0.0786 
    103 H103       23.4745   -3.6821   -3.0575 H         1 UNK         0.0786 
    104 H104       25.1342   -3.3938   -1.2417 H         1 UNK         0.2977 
    105 H105       26.7843   -1.1100   -4.8558 H         1 UNK         0.3127 
    106 H106       29.2989    0.0840   -4.6467 H         1 UNK         0.0770 
    107 H107       26.7511    0.8513   -3.1443 H         1 UNK         0.0814 
    108 H108       28.4047    1.1362   -2.6265 H         1 UNK         0.0814 
    109 H109       27.7987   -0.5058   -2.7403 H         1 UNK         0.0814 
    110 H110       26.5391    1.3576   -6.3611 H         1 UNK         0.2983 
    111 H111       28.0125    3.9182   -6.8253 H         1 UNK         0.0947 
    112 H112       25.8342    5.0499   -6.9497 H         1 UNK         0.0806 
    113 H113       25.9540    4.2558   -5.3892 H         1 UNK         0.0806 
    114 H114       24.9748    3.5425   -6.6709 H         1 UNK         0.0806 
    115 H115       27.9560    1.1839   -8.2354 H         1 UNK         0.3000 
    116 H116       27.2731    2.2226  -10.9481 H         1 UNK         0.0850 
    117 H117       26.1405    0.0882  -11.5008 H         1 UNK         0.0810 
    118 H118       25.3074    0.9043  -10.1860 H         1 UNK         0.0810 
    119 H119       26.3436   -0.4775   -9.8500 H         1 UNK         0.0810 
    120 H120       29.1453   -0.1565   -8.9906 H         1 UNK         0.3040 
    121 H121       30.6182   -1.1176  -11.3129 H         1 UNK         0.0766 
    122 H122       31.8782   -2.3975   -9.5988 H         1 UNK         0.0812 
    123 H123       30.1524   -2.5608   -9.3093 H         1 UNK         0.0812 
    124 H124       31.1202   -1.4754   -8.3125 H         1 UNK         0.0812 
    125 H125       32.8391   -0.7766  -11.6967 H         1 UNK         0.3205 
    126 H126       33.8039    1.9226  -11.2181 H         1 UNK         0.0754 
    127 H127       35.5731    1.2533  -12.8241 H         1 UNK         0.0769 
    128 H128       33.9858    0.8447  -13.4484 H         1 UNK         0.0769 
    129 H129       35.0217   -0.4162  -12.7784 H         1 UNK         0.0769 
    130 H130       33.6723    1.0611   -8.7630 H         1 UNK         0.2981 
    131 H131       36.0728   -0.1500   -7.7094 H         1 UNK         0.0541 
    132 H132       37.8727    0.8625   -6.6173 H         1 UNK         0.3459 
    133 H133       38.2579    2.5400   -6.9007 H         1 UNK         0.3459 
    134 H134       33.8780    1.5061   -6.3682 H         1 UNK         0.0612 
    135 H135       35.1944    0.7701   -5.4864 H         1 UNK         0.0612 
    136 H136       32.2148    0.5531   -5.0254 H         1 UNK         0.0624 
    137 H137       31.4176   -0.1158   -6.4237 H         1 UNK         0.0624 
@<TRIPOS>BOND
     1    1    2 1    
     2    1   72 1    
     3    1   73 1    
     4    1   74 1    
     5    2    3 2    
     6    2    4 am   BACKBONE|DICT|INTERRES
     7    4    5 1    
     8    4   75 1    
     9    5    6 1    
    10    5   35 1    
    11    5   76 1    
    12    6    7 1    
    13    6   77 1    
    14    6   78 1    
    15    7    8 1    
    16    8    9 1    
    17    8   79 1    
    18    8   80 1    
    19    9   10 ar   
    20    9   14 ar   
    21   10   11 ar   
    22   10   81 1    
    23   11   12 ar   
    24   11   71 1    
    25   12   13 ar   
    26   12   82 1    
    27   13   14 ar   
    28   13   15 1    
    29   14   83 1    
    30   15   16 1    
    31   15   84 1    
    32   15   85 1    
    33   16   17 1    
    34   17   18 1    
    35   17   86 1    
    36   17   87 1    
    37   18   19 1    
    38   18   37 1    
    39   18   88 1    
    40   19   20 am   BACKBONE|DICT|INTERRES
    41   19   89 1    
    42   20   21 2    
    43   20   22 1    
    44   22   23 1    
    45   22   24 1    
    46   22   90 1    
    47   23   91 1    
    48   23   92 1    
    49   23   93 1    
    50   24   25 am   BACKBONE|DICT|INTERRES
    51   24   94 1    
    52   25   26 2    
    53   25   27 1    
    54   27   28 1    
    55   27   29 1    
    56   27   95 1    
    57   28   96 1    
    58   28   97 1    
    59   28   98 1    
    60   29   30 am   BACKBONE|DICT|INTERRES
    61   29   99 1    
    62   30   31 2    
    63   30   32 1    
    64   32   33 1    
    65   32   34 1    
    66   32  100 1    
    67   33  101 1    
    68   33  102 1    
    69   33  103 1    
    70   34   35 am   BACKBONE|DICT|INTERRES
    71   34  104 1    
    72   35   36 2    
    73   37   38 2    
    74   37   39 am   BACKBONE|DICT|INTERRES
    75   39   40 1    
    76   39  105 1    
    77   40   41 1    
    78   40   42 1    
    79   40  106 1    
    80   41  107 1    
    81   41  108 1    
    82   41  109 1    
    83   42   43 2    
    84   42   44 am   BACKBONE|DICT|INTERRES
    85   44   45 1    
    86   44  110 1    
    87   45   46 1    
    88   45   47 1    
    89   45  111 1    
    90   46  112 1    
    91   46  113 1    
    92   46  114 1    
    93   47   48 2    
    94   47   49 am   BACKBONE|DICT|INTERRES
    95   49   50 1    
    96   49  115 1    
    97   50   51 1    
    98   50   52 1    
    99   50  116 1    
   100   51  117 1    
   101   51  118 1    
   102   51  119 1    
   103   52   53 2    
   104   52   54 am   BACKBONE|DICT|INTERRES
   105   54   55 1    
   106   54  120 1    
   107   55   56 1    
   108   55   57 1    
   109   55  121 1    
   110   56  122 1    
   111   56  123 1    
   112   56  124 1    
   113   57   58 2    
   114   57   59 am   BACKBONE|DICT|INTERRES
   115   59   60 1    
   116   59  125 1    
   117   60   61 1    
   118   60   62 1    
   119   60  126 1    
   120   61  127 1    
   121   61  128 1    
   122   61  129 1    
   123   62   63 2    
   124   62   64 am   BACKBONE|DICT|INTERRES
   125   64   65 1    
   126   64  130 1    
   127   65   66 1    
   128   65   69 1    
   129   65  131 1    
   130   66   67 am   BACKBONE|DICT|INTERRES
   131   66   68 2    
   132   67  132 1    
   133   67  133 1    
   134   69   70 1    
   135   69  134 1    
   136   69  135 1    
   137   70   71 1    
   138   71  136 1    
   139   71  137 1    
@<TRIPOS>SUBSTRUCTURE
     1 UNK         1 GROUP             0       ****    0 ROOT    
