@<TRIPOS>MOLECULE
3R137
137   139    1
SMALL
USER_CHARGES


@<TRIPOS>ATOM
      1 CA         30.1343   -5.3094   -0.8958 C.3       0 UNK        -0.2020 
      2 C          28.8820   -4.8381   -0.1718 C.2       0 UNK         0.4855 
      3 O          28.1727   -5.6537    0.4169 O.2       0 UNK        -0.5197 
      4 N          28.6120   -3.5264   -0.1973 N.am      1 UNK        -0.4892 
      5 CA         27.4984   -2.8901    0.5171 C.3       1 UNK         0.0835 
      6 C6         27.7823   -1.3848    0.7805 C.3       12 UNK        -0.0855 
      7 S7         27.4997   -0.2518   -0.6308 S.3       12 UNK        -0.2931 
      8 C8         29.1820    0.2644   -1.1205 C.3       12 UNK         0.0378 
      9 C9         29.8885   -0.6052   -2.1652 C.ar      12 UNK        -0.0802 
     10 C10        31.1833   -0.2372   -2.5422 C.ar      12 UNK        -0.0944 
     11 C11        31.8892   -0.9709   -3.4978 C.ar      12 UNK        -0.0787 
     12 C12        31.3052   -2.1047   -4.0668 C.ar      12 UNK        -0.0862 
     13 C13        30.0176   -2.4984   -3.6963 C.ar      12 UNK        -0.0733 
     14 C14        29.3039   -1.7290   -2.7691 C.ar      12 UNK        -0.0832 
     15 C15        29.4326   -3.7929   -4.2470 C.3       12 UNK         0.0240 
     16 S16        27.9191   -3.5462   -5.2143 S.3       12 UNK        -0.2522 
     17 C17        28.5538   -3.0096   -6.8378 C.3       12 UNK        -0.0967 
     18 CA         27.7426   -1.8471   -7.4677 C.3       5 UNK         0.0660 
     19 N          26.2941   -2.0182   -7.3072 N.am      5 UNK        -0.4015 
     20 C          25.3554   -1.3234   -7.9601 C.2       4 UNK         0.4946 
     21 O          25.6007   -0.4544   -8.7960 O.2       4 UNK        -0.5353 
     22 CA         23.8955   -1.6323   -7.5927 C.3       4 UNK         0.0277 
     23 CB         23.4705   -3.0083   -8.1319 C.3       4 UNK        -0.1981 
     24 N          23.6260   -1.5574   -6.1525 N.am      4 UNK        -0.4209 
     25 C          23.7469   -0.4442   -5.4145 C.2       3 UNK         0.4942 
     26 O          24.1770    0.6218   -5.8509 O.2       3 UNK        -0.5208 
     27 CA         23.3036   -0.5161   -3.9439 C.3       3 UNK         0.0250 
     28 CB         21.8116   -0.1678   -3.8185 C.3       3 UNK        -0.1990 
     29 N          23.5619   -1.8038   -3.2927 N.am      3 UNK        -0.4232 
     30 C          24.7877   -2.2777   -3.0371 C.2       2 UNK         0.4993 
     31 O          25.8218   -1.7311   -3.4257 O.2       2 UNK        -0.5286 
     32 CA         24.8678   -3.5791   -2.2230 C.3       2 UNK         0.0209 
     33 CB         24.9010   -4.8086   -3.1448 C.3       2 UNK        -0.1931 
     34 N          26.0744   -3.5579   -1.3949 N.am      2 UNK        -0.4546 
     35 C          26.1101   -3.1321   -0.1242 C.2       1 UNK         0.5154 
     36 O          25.0983   -2.9060    0.5429 O.2       1 UNK        -0.5181 
     37 C          28.2333   -0.4693   -6.9864 C.2       5 UNK         0.5014 
     38 O          29.1400    0.0901   -7.6083 O.2       5 UNK        -0.5248 
     39 N          27.6068    0.0646   -5.9281 N.am      6 UNK        -0.4434 
     40 CA         27.8497    1.4122   -5.4175 C.3       6 UNK         0.0363 
     41 CB         27.1471    1.5823   -4.0628 C.3       6 UNK        -0.1936 
     42 C          27.3987    2.4953   -6.4113 C.2       6 UNK         0.5081 
     43 O          28.1753    3.4036   -6.7048 O.2       6 UNK        -0.5248 
     44 N          26.1692    2.3676   -6.9330 N.am      7 UNK        -0.4718 
     45 CA         25.5785    3.2790   -7.9182 C.3       7 UNK         0.0273 
     46 CB         24.0852    2.9588   -8.0902 C.3       7 UNK        -0.1935 
     47 C          26.2965    3.2472   -9.2762 C.2       7 UNK         0.5018 
     48 O          26.4936    4.3029   -9.8791 O.2       7 UNK        -0.5186 
     49 N          26.6948    2.0473   -9.7218 N.am      8 UNK        -0.4240 
     50 CA         27.4850    1.8359  -10.9377 C.3       8 UNK         0.0235 
     51 CB         27.4301    0.3478  -11.3215 C.3       8 UNK        -0.2000 
     52 C          28.9504    2.2902  -10.8087 C.2       8 UNK         0.4941 
     53 O          29.6054    2.4633  -11.8372 O.2       8 UNK        -0.5273 
     54 N          29.4392    2.4444   -9.5671 N.am      9 UNK        -0.4262 
     55 CA         30.8288    2.7115   -9.1796 C.3       9 UNK         0.0264 
     56 CB         31.2698    4.1222   -9.6231 C.3       9 UNK        -0.1955 
     57 C          31.7702    1.5937   -9.6661 C.2       9 UNK         0.5031 
     58 O          32.7986    1.8665  -10.2877 O.2       9 UNK        -0.5390 
     59 N          31.3793    0.3434   -9.3846 N.am      10 UNK        -0.4204 
     60 CA         32.0546   -0.8780   -9.8385 C.3       10 UNK         0.0237 
     61 CB         31.0412   -2.0349   -9.8045 C.3       10 UNK        -0.1985 
     62 C          33.3263   -1.2341   -9.0407 C.2       10 UNK         0.4970 
     63 O          33.9523   -2.2525   -9.3384 O.2       10 UNK        -0.4914 
     64 N          33.6638   -0.4225   -8.0326 N.am      11 UNK        -0.4285 
     65 CA         34.7992   -0.5778   -7.1143 C.3       11 UNK         0.1007 
     66 C          36.1780   -0.6318   -7.8281 C.2       11 UNK         0.5703 
     67 N          37.1009   -1.4471   -7.3354 N.am      11 UNK        -0.7361 
     68 O          36.4322    0.0902   -8.7907 O.2       11 UNK        -0.4986 
     69 C69        34.7957    0.5329   -6.0287 C.3       12 UNK        -0.0947 
     70 S70        33.1745    0.7307   -5.2173 S.3       12 UNK        -0.2240 
     71 C71        33.2810   -0.5358   -3.9207 C.3       12 UNK         0.0194 
     72 H72        30.8120   -5.7912   -0.1916 H         1 UNK         0.0906 
     73 H73        29.8748   -6.0360   -1.6651 H         1 UNK         0.0906 
     74 H74        30.6704   -4.4856   -1.3669 H         1 UNK         0.0906 
     75 H75        29.2317   -2.8960   -0.6878 H         1 UNK         0.3140 
     76 H76        27.4466   -3.3687    1.4982 H         1 UNK         0.1085 
     77 H77        27.1325   -1.0417    1.5878 H         1 UNK         0.0836 
     78 H78        28.7955   -1.2557    1.1638 H         1 UNK         0.0836 
     79 H79        29.1058    1.2746   -1.5251 H         1 UNK         0.0731 
     80 H80        29.8082    0.3455   -0.2309 H         1 UNK         0.0731 
     81 H81        31.6422    0.6374   -2.1009 H         1 UNK         0.1312 
     82 H82        31.8596   -2.6850   -4.7918 H         1 UNK         0.1406 
     83 H83        28.2925   -2.0181   -2.5252 H         1 UNK         0.1631 
     84 H84        29.1858   -4.4468   -3.4122 H         1 UNK         0.0717 
     85 H85        30.1624   -4.3361   -4.8495 H         1 UNK         0.0717 
     86 H86        29.6125   -2.7555   -6.7560 H         1 UNK         0.0934 
     87 H87        28.5131   -3.8752   -7.5007 H         1 UNK         0.0934 
     88 H88        27.9393   -1.8698   -8.5418 H         1 UNK         0.0739 
     89 H89        26.0115   -2.6886   -6.6062 H         1 UNK         0.3093 
     90 H90        23.2755   -0.8759   -8.0791 H         1 UNK         0.0818 
     91 H91        22.4036   -3.1782   -7.9859 H         1 UNK         0.0819 
     92 H92        23.6635   -3.0835   -9.2031 H         1 UNK         0.0819 
     93 H93        24.0089   -3.8228   -7.6458 H         1 UNK         0.0819 
     94 H94        23.2670   -2.3888   -5.7068 H         1 UNK         0.3041 
     95 H95        23.8721    0.2435   -3.4023 H         1 UNK         0.0784 
     96 H96        21.5975    0.7993   -4.2762 H         1 UNK         0.0793 
     97 H97        21.1794   -0.9080   -4.3106 H         1 UNK         0.0793 
     98 H98        21.5050   -0.1033   -2.7743 H         1 UNK         0.0793 
     99 H99        22.7564   -2.3124   -2.9565 H         1 UNK         0.3024 
    100 H100       23.9817   -3.6513   -1.5880 H         1 UNK         0.1171 
    101 H101       24.0156   -4.8471   -3.7806 H         1 UNK         0.0786 
    102 H102       24.9240   -5.7324   -2.5666 H         1 UNK         0.0786 
    103 H103       25.7717   -4.8060   -3.7984 H         1 UNK         0.0786 
    104 H104       26.9502   -3.6758   -1.8809 H         1 UNK         0.2977 
    105 H105       26.8937   -0.4792   -5.4597 H         1 UNK         0.3127 
    106 H106       28.9255    1.5183   -5.2598 H         1 UNK         0.0770 
    107 H107       26.0615    1.5592   -4.1571 H         1 UNK         0.0814 
    108 H108       27.4162    2.5319   -3.5993 H         1 UNK         0.0814 
    109 H109       27.4313    0.7880   -3.3750 H         1 UNK         0.0814 
    110 H110       25.5730    1.6078   -6.6090 H         1 UNK         0.2983 
    111 H111       25.6663    4.2941   -7.5250 H         1 UNK         0.0947 
    112 H112       23.6206    3.6291   -8.8145 H         1 UNK         0.0806 
    113 H113       23.5455    3.0728   -7.1498 H         1 UNK         0.0806 
    114 H114       23.9306    1.9374   -8.4410 H         1 UNK         0.0806 
    115 H115       26.4193    1.2147   -9.2041 H         1 UNK         0.3000 
    116 H116       27.0319    2.4158  -11.7447 H         1 UNK         0.0850 
    117 H117       27.9796    0.1593  -12.2448 H         1 UNK         0.0810 
    118 H118       26.4039    0.0167  -11.4818 H         1 UNK         0.0810 
    119 H119       27.8680   -0.2822  -10.5463 H         1 UNK         0.0810 
    120 H120       28.8103    2.2607   -8.7954 H         1 UNK         0.3040 
    121 H121       30.8525    2.6845   -8.0887 H         1 UNK         0.0766 
    122 H122       32.2637    4.3568   -9.2403 H         1 UNK         0.0812 
    123 H123       30.5884    4.8852   -9.2468 H         1 UNK         0.0812 
    124 H124       31.3107    4.2142  -10.7088 H         1 UNK         0.0812 
    125 H125       30.5390    0.2212   -8.8192 H         1 UNK         0.3205 
    126 H126       32.3630   -0.7304  -10.8756 H         1 UNK         0.0754 
    127 H127       31.4722   -2.9490  -10.2151 H         1 UNK         0.0769 
    128 H128       30.1535   -1.8044  -10.3941 H         1 UNK         0.0769 
    129 H129       30.7219   -2.2538   -8.7864 H         1 UNK         0.0769 
    130 H130       33.0868    0.3873   -7.8678 H         1 UNK         0.2981 
    131 H131       34.6504   -1.5368   -6.6150 H         1 UNK         0.0541 
    132 H132       36.9095   -2.0332   -6.5378 H         1 UNK         0.3459 
    133 H133       38.0072   -1.4825   -7.7756 H         1 UNK         0.3459 
    134 H134       35.0572    1.4962   -6.4710 H         1 UNK         0.0612 
    135 H135       35.5519    0.3324   -5.2674 H         1 UNK         0.0612 
    136 H136       33.8339   -0.1380   -3.0683 H         1 UNK         0.0624 
    137 H137       33.8455   -1.3958   -4.2836 H         1 UNK         0.0624 
@<TRIPOS>BOND
     1    1    2 1    
     2    1   72 1    
     3    1   73 1    
     4    1   74 1    
     5    2    3 2    
     6    2    4 am   BACKBONE|DICT|INTERRES
     7    4    5 1    
     8    4   75 1    
     9    5    6 1    
    10    5   35 1    
    11    5   76 1    
    12    6    7 1    
    13    6   77 1    
    14    6   78 1    
    15    7    8 1    
    16    8    9 1    
    17    8   79 1    
    18    8   80 1    
    19    9   10 ar   
    20    9   14 ar   
    21   10   11 ar   
    22   10   81 1    
    23   11   12 ar   
    24   11   71 1    
    25   12   13 ar   
    26   12   82 1    
    27   13   14 ar   
    28   13   15 1    
    29   14   83 1    
    30   15   16 1    
    31   15   84 1    
    32   15   85 1    
    33   16   17 1    
    34   17   18 1    
    35   17   86 1    
    36   17   87 1    
    37   18   19 1    
    38   18   37 1    
    39   18   88 1    
    40   19   20 am   BACKBONE|DICT|INTERRES
    41   19   89 1    
    42   20   21 2    
    43   20   22 1    
    44   22   23 1    
    45   22   24 1    
    46   22   90 1    
    47   23   91 1    
    48   23   92 1    
    49   23   93 1    
    50   24   25 am   BACKBONE|DICT|INTERRES
    51   24   94 1    
    52   25   26 2    
    53   25   27 1    
    54   27   28 1    
    55   27   29 1    
    56   27   95 1    
    57   28   96 1    
    58   28   97 1    
    59   28   98 1    
    60   29   30 am   BACKBONE|DICT|INTERRES
    61   29   99 1    
    62   30   31 2    
    63   30   32 1    
    64   32   33 1    
    65   32   34 1    
    66   32  100 1    
    67   33  101 1    
    68   33  102 1    
    69   33  103 1    
    70   34   35 am   BACKBONE|DICT|INTERRES
    71   34  104 1    
    72   35   36 2    
    73   37   38 2    
    74   37   39 am   BACKBONE|DICT|INTERRES
    75   39   40 1    
    76   39  105 1    
    77   40   41 1    
    78   40   42 1    
    79   40  106 1    
    80   41  107 1    
    81   41  108 1    
    82   41  109 1    
    83   42   43 2    
    84   42   44 am   BACKBONE|DICT|INTERRES
    85   44   45 1    
    86   44  110 1    
    87   45   46 1    
    88   45   47 1    
    89   45  111 1    
    90   46  112 1    
    91   46  113 1    
    92   46  114 1    
    93   47   48 2    
    94   47   49 am   BACKBONE|DICT|INTERRES
    95   49   50 1    
    96   49  115 1    
    97   50   51 1    
    98   50   52 1    
    99   50  116 1    
   100   51  117 1    
   101   51  118 1    
   102   51  119 1    
   103   52   53 2    
   104   52   54 am   BACKBONE|DICT|INTERRES
   105   54   55 1    
   106   54  120 1    
   107   55   56 1    
   108   55   57 1    
   109   55  121 1    
   110   56  122 1    
   111   56  123 1    
   112   56  124 1    
   113   57   58 2    
   114   57   59 am   BACKBONE|DICT|INTERRES
   115   59   60 1    
   116   59  125 1    
   117   60   61 1    
   118   60   62 1    
   119   60  126 1    
   120   61  127 1    
   121   61  128 1    
   122   61  129 1    
   123   62   63 2    
   124   62   64 am   BACKBONE|DICT|INTERRES
   125   64   65 1    
   126   64  130 1    
   127   65   66 1    
   128   65   69 1    
   129   65  131 1    
   130   66   67 am   BACKBONE|DICT|INTERRES
   131   66   68 2    
   132   67  132 1    
   133   67  133 1    
   134   69   70 1    
   135   69  134 1    
   136   69  135 1    
   137   70   71 1    
   138   71  136 1    
   139   71  137 1    
@<TRIPOS>SUBSTRUCTURE
     1 UNK         1 GROUP             0       ****    0 ROOT    
