@<TRIPOS>MOLECULE
3R137
137   139    1
SMALL
USER_CHARGES


@<TRIPOS>ATOM
      1 CA         29.7044   -1.4450    3.1562 C.3       0 UNK        -0.2020 
      2 C          29.2151   -1.1312    1.7501 C.2       0 UNK         0.4855 
      3 O          28.7038   -0.0368    1.5092 O.2       0 UNK        -0.5197 
      4 N          29.3759   -2.0781    0.8184 N.am      1 UNK        -0.4892 
      5 CA         28.8951   -1.9860   -0.5635 C.3       1 UNK         0.0835 
      6 C6         29.6704   -2.9501   -1.4988 C.3       12 UNK        -0.0855 
      7 S7         29.6194   -4.7101   -0.9977 S.3       12 UNK        -0.2931 
      8 C8         31.0979   -5.3800   -1.8386 C.3       12 UNK         0.0378 
      9 C9         31.1417   -5.0430   -3.3258 C.ar      12 UNK        -0.0802 
     10 C10        32.2905   -4.4723   -3.8838 C.ar      12 UNK        -0.0944 
     11 C11        32.3178   -4.1051   -5.2330 C.ar      12 UNK        -0.0787 
     12 C12        31.1837   -4.3065   -6.0253 C.ar      12 UNK        -0.0862 
     13 C13        30.0331   -4.8846   -5.4818 C.ar      12 UNK        -0.0733 
     14 C14        30.0287   -5.2750   -4.1400 C.ar      12 UNK        -0.0832 
     15 C15        28.7837   -5.0610   -6.3338 C.3       12 UNK         0.0240 
     16 S16        27.3561   -4.1598   -5.6461 S.3       12 UNK        -0.2522 
     17 C17        27.9036   -2.4208   -5.7577 C.3       12 UNK        -0.0967 
     18 CA         27.1369   -1.6440   -6.8518 C.3       5 UNK         0.0660 
     19 N          25.6873   -1.6638   -6.6430 N.am      5 UNK        -0.4015 
     20 C          24.7776   -1.3099   -7.5599 C.2       4 UNK         0.4946 
     21 O          25.0599   -0.9354   -8.6966 O.2       4 UNK        -0.5353 
     22 CA         23.3063   -1.3371   -7.1168 C.3       4 UNK         0.0277 
     23 CB         22.7457   -2.7670   -7.1790 C.3       4 UNK        -0.1981 
     24 N          23.1220   -0.7896   -5.7707 N.am      4 UNK        -0.4209 
     25 C          23.3482    0.4907   -5.4423 C.2       3 UNK         0.4942 
     26 O          23.6711    1.3583   -6.2537 O.2       3 UNK        -0.5208 
     27 CA         23.2413    0.8530   -3.9508 C.3       3 UNK         0.0250 
     28 CB         21.7909    1.2052   -3.5842 C.3       3 UNK        -0.1990 
     29 N          23.7386   -0.1943   -3.0489 N.am      3 UNK        -0.4232 
     30 C          24.9987   -0.6502   -3.0310 C.2       2 UNK         0.4993 
     31 O          25.8788   -0.2726   -3.8098 O.2       2 UNK        -0.5286 
     32 CA         25.3257   -1.7391   -2.0056 C.3       2 UNK         0.0209 
     33 CB         24.9192   -3.1270   -2.5357 C.3       2 UNK        -0.1931 
     34 N          26.7620   -1.7012   -1.7408 N.am      2 UNK        -0.4546 
     35 C          27.3637   -2.1847   -0.6485 C.2       1 UNK         0.5154 
     36 O          26.7588   -2.7677    0.2570 O.2       1 UNK        -0.5181 
     37 C          27.6631   -0.2028   -6.9824 C.2       5 UNK         0.5014 
     38 O          28.5073    0.0525   -7.8441 O.2       5 UNK        -0.5248 
     39 N          27.1306    0.7151   -6.1601 N.am      6 UNK        -0.4434 
     40 CA         27.3875    2.1570   -6.2159 C.3       6 UNK         0.0363 
     41 CB         26.6870    2.8617   -5.0443 C.3       6 UNK        -0.1936 
     42 C          26.9852    2.7879   -7.5583 C.2       6 UNK         0.5081 
     43 O          27.7297    3.6156   -8.0827 O.2       6 UNK        -0.5248 
     44 N          25.8355    2.3679   -8.1024 N.am      7 UNK        -0.4718 
     45 CA         25.3714    2.7583   -9.4336 C.3       7 UNK         0.0273 
     46 CB         23.8866    2.3911   -9.5883 C.3       7 UNK        -0.1935 
     47 C          26.2119    2.1316  -10.5602 C.2       7 UNK         0.5018 
     48 O          26.5246    2.8226  -11.5306 O.2       7 UNK        -0.5186 
     49 N          26.5446    0.8399  -10.4230 N.am      8 UNK        -0.4240 
     50 CA         27.2660    0.0591  -11.4286 C.3       8 UNK         0.0235 
     51 CB         27.1413   -1.4410  -11.1157 C.3       8 UNK        -0.2000 
     52 C          28.7438    0.4469  -11.5904 C.2       8 UNK         0.4941 
     53 O          29.1968    0.5744  -12.7296 O.2       8 UNK        -0.5273 
     54 N          29.4789    0.5844  -10.4770 N.am      9 UNK        -0.4262 
     55 CA         30.9368    0.7596  -10.5021 C.3       9 UNK         0.0264 
     56 CB         31.6240   -0.6152  -10.6151 C.3       9 UNK        -0.1955 
     57 C          31.5134    1.5360   -9.3112 C.2       9 UNK         0.5031 
     58 O          32.5539    2.1736   -9.4806 O.2       9 UNK        -0.5390 
     59 N          30.8941    1.4387   -8.1263 N.am      10 UNK        -0.4204 
     60 CA         31.2969    2.0187   -6.8327 C.3       10 UNK         0.0237 
     61 CB         31.3034    3.5591   -6.8770 C.3       10 UNK        -0.1985 
     62 C          32.6013    1.4717   -6.2220 C.2       10 UNK         0.4970 
     63 O          32.6602    1.3532   -4.9983 O.2       10 UNK        -0.4914 
     64 N          33.5931    1.1454   -7.0618 N.am      11 UNK        -0.4285 
     65 CA         34.8750    0.4781   -6.7613 C.3       11 UNK         0.1007 
     66 C          35.7652    1.1138   -5.6479 C.2       11 UNK         0.5703 
     67 N          35.5878    2.3856   -5.3114 N.am      11 UNK        -0.7361 
     68 O          36.6638    0.4667   -5.1143 O.2       11 UNK        -0.4986 
     69 C69        34.7540   -1.0752   -6.6920 C.3       12 UNK        -0.0947 
     70 S70        33.6969   -1.7254   -5.3553 S.3       12 UNK        -0.2240 
     71 C71        33.5640   -3.4732   -5.8331 C.3       12 UNK         0.0194 
     72 H72        30.4558   -0.7181    3.4634 H         1 UNK         0.0906 
     73 H73        28.8748   -1.3967    3.8611 H         1 UNK         0.0906 
     74 H74        30.1474   -2.4386    3.2217 H         1 UNK         0.0906 
     75 H75        29.7609   -2.9769    1.0741 H         1 UNK         0.3140 
     76 H76        29.0962   -0.9694   -0.9102 H         1 UNK         0.1085 
     77 H77        29.3024   -2.8693   -2.5237 H         1 UNK         0.0836 
     78 H78        30.7152   -2.6373   -1.5411 H         1 UNK         0.0836 
     79 H79        31.9859   -4.9998   -1.3311 H         1 UNK         0.0731 
     80 H80        31.1137   -6.4640   -1.7194 H         1 UNK         0.0731 
     81 H81        33.1603   -4.2926   -3.2665 H         1 UNK         0.1312 
     82 H82        31.1944   -4.0022   -7.0632 H         1 UNK         0.1406 
     83 H83        29.1356   -5.7138   -3.7154 H         1 UNK         0.1631 
     84 H84        28.5386   -6.1224   -6.3904 H         1 UNK         0.0717 
     85 H85        28.9542   -4.7269   -7.3585 H         1 UNK         0.0717 
     86 H86        27.7597   -1.9596   -4.7795 H         1 UNK         0.0934 
     87 H87        28.9773   -2.3835   -5.9493 H         1 UNK         0.0934 
     88 H88        27.3330   -2.1407   -7.8040 H         1 UNK         0.0739 
     89 H89        25.3749   -1.9316   -5.7224 H         1 UNK         0.3093 
     90 H90        22.7394   -0.7160   -7.8140 H         1 UNK         0.0818 
     91 H91        21.6815   -2.7864   -6.9433 H         1 UNK         0.0819 
     92 H92        22.8613   -3.1860   -8.1797 H         1 UNK         0.0819 
     93 H93        23.2563   -3.4363   -6.4852 H         1 UNK         0.0819 
     94 H94        22.8441   -1.4317   -5.0431 H         1 UNK         0.3041 
     95 H95        23.8555    1.7408   -3.7877 H         1 UNK         0.0784 
     96 H96        21.4070    1.9965   -4.2300 H         1 UNK         0.0793 
     97 H97        21.1254    0.3474   -3.6895 H         1 UNK         0.0793 
     98 H98        21.7167    1.5647   -2.5577 H         1 UNK         0.0793 
     99 H99        23.0758   -0.5664   -2.3832 H         1 UNK         0.3024 
    100 H100       24.7857   -1.5215   -1.0810 H         1 UNK         0.1171 
    101 H101       23.8504   -3.1725   -2.7479 H         1 UNK         0.0786 
    102 H102       25.1347   -3.9096   -1.8080 H         1 UNK         0.0786 
    103 H103       25.4477   -3.3765   -3.4557 H         1 UNK         0.0786 
    104 H104       27.2899   -1.1893   -2.4371 H         1 UNK         0.2977 
    105 H105       26.4994    0.3966   -5.4270 H         1 UNK         0.3127 
    106 H106       28.4566    2.3095   -6.0931 H         1 UNK         0.0770 
    107 H107       25.6028    2.7902   -5.1186 H         1 UNK         0.0814 
    108 H108       26.9404    3.9223   -5.0229 H         1 UNK         0.0814 
    109 H109       26.9870    2.4363   -4.0864 H         1 UNK         0.0814 
    110 H110       25.2438    1.7362   -7.5722 H         1 UNK         0.2983 
    111 H111       25.4614    3.8436   -9.5192 H         1 UNK         0.0947 
    112 H112       23.5088    2.6956  -10.5652 H         1 UNK         0.0806 
    113 H113       23.2759    2.8877   -8.8340 H         1 UNK         0.0806 
    114 H114       23.7222    1.3173   -9.4941 H         1 UNK         0.0806 
    115 H115       26.1788    0.3262   -9.6252 H         1 UNK         0.3000 
    116 H116       26.7779    0.2357  -12.3897 H         1 UNK         0.0850 
    117 H117       27.6574   -2.0419  -11.8657 H         1 UNK         0.0810 
    118 H118       26.0987   -1.7593  -11.1090 H         1 UNK         0.0810 
    119 H119       27.5734   -1.6878  -10.1460 H         1 UNK         0.0810 
    120 H120       29.0287    0.4648   -9.5722 H         1 UNK         0.3040 
    121 H121       31.2027    1.3450  -11.3853 H         1 UNK         0.0766 
    122 H122       32.7103   -0.5135  -10.6228 H         1 UNK         0.0812 
    123 H123       31.3438   -1.1263  -11.5363 H         1 UNK         0.0812 
    124 H124       31.3618   -1.2643   -9.7787 H         1 UNK         0.0812 
    125 H125       30.0578    0.8581   -8.0718 H         1 UNK         0.3205 
    126 H126       30.5214    1.7107   -6.1339 H         1 UNK         0.0754 
    127 H127       31.4913    3.9763   -5.8868 H         1 UNK         0.0769 
    128 H128       30.3436    3.9492   -7.2154 H         1 UNK         0.0769 
    129 H129       32.0751    3.9459   -7.5429 H         1 UNK         0.0769 
    130 H130       33.4416    1.3832   -8.0383 H         1 UNK         0.2981 
    131 H131       35.4647    0.6706   -7.6582 H         1 UNK         0.0541 
    132 H132       34.8525    2.9266   -5.7368 H         1 UNK         0.3459 
    133 H133       36.1752    2.7961   -4.6031 H         1 UNK         0.3459 
    134 H134       35.7400   -1.5351   -6.6061 H         1 UNK         0.0612 
    135 H135       34.3486   -1.4328   -7.6396 H         1 UNK         0.0612 
    136 H136       33.5405   -3.5592   -6.9205 H         1 UNK         0.0624 
    137 H137       34.4545   -4.0074   -5.4991 H         1 UNK         0.0624 
@<TRIPOS>BOND
     1    1    2 1    
     2    1   72 1    
     3    1   73 1    
     4    1   74 1    
     5    2    3 2    
     6    2    4 am   BACKBONE|DICT|INTERRES
     7    4    5 1    
     8    4   75 1    
     9    5    6 1    
    10    5   35 1    
    11    5   76 1    
    12    6    7 1    
    13    6   77 1    
    14    6   78 1    
    15    7    8 1    
    16    8    9 1    
    17    8   79 1    
    18    8   80 1    
    19    9   10 ar   
    20    9   14 ar   
    21   10   11 ar   
    22   10   81 1    
    23   11   12 ar   
    24   11   71 1    
    25   12   13 ar   
    26   12   82 1    
    27   13   14 ar   
    28   13   15 1    
    29   14   83 1    
    30   15   16 1    
    31   15   84 1    
    32   15   85 1    
    33   16   17 1    
    34   17   18 1    
    35   17   86 1    
    36   17   87 1    
    37   18   19 1    
    38   18   37 1    
    39   18   88 1    
    40   19   20 am   BACKBONE|DICT|INTERRES
    41   19   89 1    
    42   20   21 2    
    43   20   22 1    
    44   22   23 1    
    45   22   24 1    
    46   22   90 1    
    47   23   91 1    
    48   23   92 1    
    49   23   93 1    
    50   24   25 am   BACKBONE|DICT|INTERRES
    51   24   94 1    
    52   25   26 2    
    53   25   27 1    
    54   27   28 1    
    55   27   29 1    
    56   27   95 1    
    57   28   96 1    
    58   28   97 1    
    59   28   98 1    
    60   29   30 am   BACKBONE|DICT|INTERRES
    61   29   99 1    
    62   30   31 2    
    63   30   32 1    
    64   32   33 1    
    65   32   34 1    
    66   32  100 1    
    67   33  101 1    
    68   33  102 1    
    69   33  103 1    
    70   34   35 am   BACKBONE|DICT|INTERRES
    71   34  104 1    
    72   35   36 2    
    73   37   38 2    
    74   37   39 am   BACKBONE|DICT|INTERRES
    75   39   40 1    
    76   39  105 1    
    77   40   41 1    
    78   40   42 1    
    79   40  106 1    
    80   41  107 1    
    81   41  108 1    
    82   41  109 1    
    83   42   43 2    
    84   42   44 am   BACKBONE|DICT|INTERRES
    85   44   45 1    
    86   44  110 1    
    87   45   46 1    
    88   45   47 1    
    89   45  111 1    
    90   46  112 1    
    91   46  113 1    
    92   46  114 1    
    93   47   48 2    
    94   47   49 am   BACKBONE|DICT|INTERRES
    95   49   50 1    
    96   49  115 1    
    97   50   51 1    
    98   50   52 1    
    99   50  116 1    
   100   51  117 1    
   101   51  118 1    
   102   51  119 1    
   103   52   53 2    
   104   52   54 am   BACKBONE|DICT|INTERRES
   105   54   55 1    
   106   54  120 1    
   107   55   56 1    
   108   55   57 1    
   109   55  121 1    
   110   56  122 1    
   111   56  123 1    
   112   56  124 1    
   113   57   58 2    
   114   57   59 am   BACKBONE|DICT|INTERRES
   115   59   60 1    
   116   59  125 1    
   117   60   61 1    
   118   60   62 1    
   119   60  126 1    
   120   61  127 1    
   121   61  128 1    
   122   61  129 1    
   123   62   63 2    
   124   62   64 am   BACKBONE|DICT|INTERRES
   125   64   65 1    
   126   64  130 1    
   127   65   66 1    
   128   65   69 1    
   129   65  131 1    
   130   66   67 am   BACKBONE|DICT|INTERRES
   131   66   68 2    
   132   67  132 1    
   133   67  133 1    
   134   69   70 1    
   135   69  134 1    
   136   69  135 1    
   137   70   71 1    
   138   71  136 1    
   139   71  137 1    
@<TRIPOS>SUBSTRUCTURE
     1 UNK         1 GROUP             0       ****    0 ROOT    
