@<TRIPOS>MOLECULE
3R137
137   139    1
SMALL
USER_CHARGES


@<TRIPOS>ATOM
      1 CA         25.4950   -1.0719   -7.6224 C.3       0 UNK        -0.2020 
      2 C          25.8773   -2.4068   -7.0038 C.2       0 UNK         0.4855 
      3 O          25.7321   -3.4484   -7.6438 O.2       0 UNK        -0.5197 
      4 N          26.3517   -2.3902   -5.7535 N.am      1 UNK        -0.4892 
      5 CA         26.7814   -3.5635   -4.9903 C.3       1 UNK         0.0835 
      6 C6         27.8774   -3.1808   -3.9640 C.3       12 UNK        -0.0855 
      7 S7         28.8474   -4.6276   -3.4140 S.3       12 UNK        -0.2931 
      8 C8         30.5460   -4.1652   -3.9063 C.3       12 UNK         0.0378 
      9 C9         31.0418   -2.8518   -3.3015 C.ar      12 UNK        -0.0802 
     10 C10        31.8944   -2.0301   -4.0457 C.ar      12 UNK        -0.0944 
     11 C11        32.3618   -0.8218   -3.5189 C.ar      12 UNK        -0.0787 
     12 C12        31.9584   -0.4255   -2.2403 C.ar      12 UNK        -0.0862 
     13 C13        31.1168   -1.2426   -1.4796 C.ar      12 UNK        -0.0733 
     14 C14        30.6763   -2.4580   -2.0088 C.ar      12 UNK        -0.0832 
     15 C15        30.6958   -0.8314   -0.0762 C.3       12 UNK         0.0240 
     16 S16        28.9098   -0.4891    0.0302 S.3       12 UNK        -0.2522 
     17 C17        28.7597    1.0271   -0.9723 C.3       12 UNK        -0.0967 
     18 CA         27.9221    0.8133   -2.2589 C.3       5 UNK         0.0660 
     19 N          26.5524    0.3867   -1.9574 N.am      5 UNK        -0.4015 
     20 C          25.6582   -0.0264   -2.8636 C.2       4 UNK         0.4946 
     21 O          25.9245   -0.2340   -4.0524 O.2       4 UNK        -0.5353 
     22 CA         24.2169   -0.2014   -2.3674 C.3       4 UNK         0.0277 
     23 CB         23.5875    1.1761   -2.0653 C.3       4 UNK        -0.1981 
     24 N          23.4594   -0.8952   -3.4060 N.am      4 UNK        -0.4209 
     25 C          22.2087   -1.3628   -3.3154 C.2       3 UNK         0.4942 
     26 O          21.5141   -1.2920   -2.3010 O.2       3 UNK        -0.5208 
     27 CA         21.6426   -2.0327   -4.5777 C.3       3 UNK         0.0250 
     28 CB         21.5595   -1.0427   -5.7538 C.3       3 UNK        -0.1990 
     29 N          22.4473   -3.1916   -4.9617 N.am      3 UNK        -0.4232 
     30 C          22.3877   -4.3911   -4.3653 C.2       2 UNK         0.4993 
     31 O          21.5724   -4.6874   -3.4912 O.2       2 UNK        -0.5286 
     32 CA         23.4226   -5.4375   -4.8156 C.3       2 UNK         0.0209 
     33 CB         22.8768   -6.2731   -5.9848 C.3       2 UNK        -0.1931 
     34 N          24.7050   -4.8400   -5.2009 N.am      2 UNK        -0.4546 
     35 C          25.5464   -4.2327   -4.3526 C.2       1 UNK         0.5154 
     36 O          25.3400   -4.1453   -3.1406 O.2       1 UNK        -0.5181 
     37 C          27.8696    2.1127   -3.0872 C.2       5 UNK         0.5014 
     38 O          27.4795    3.1528   -2.5510 O.2       5 UNK        -0.5248 
     39 N          28.2280    2.0304   -4.3706 N.am      6 UNK        -0.4434 
     40 CA         28.1857    3.1253   -5.3332 C.3       6 UNK         0.0363 
     41 CB         26.7372    3.3542   -5.8077 C.3       6 UNK        -0.1936 
     42 C          29.0835    2.7515   -6.5127 C.2       6 UNK         0.5081 
     43 O          29.3128    1.5623   -6.7432 O.2       6 UNK        -0.5248 
     44 N          29.5278    3.7615   -7.2741 N.am      7 UNK        -0.4718 
     45 CA         30.4284    3.6295   -8.4302 C.3       7 UNK         0.0273 
     46 CB         30.7159    5.0214   -9.0137 C.3       7 UNK        -0.1935 
     47 C          29.9351    2.6755   -9.5345 C.2       7 UNK         0.5018 
     48 O          30.7604    2.1007  -10.2448 O.2       7 UNK        -0.5186 
     49 N          28.6126    2.4662   -9.6113 N.am      8 UNK        -0.4240 
     50 CA         27.9447    1.4580  -10.4408 C.3       8 UNK         0.0235 
     51 CB         26.4234    1.6021  -10.2708 C.3       8 UNK        -0.2000 
     52 C          28.3861    0.0061  -10.1581 C.2       8 UNK         0.4941 
     53 O          28.2361   -0.8418  -11.0376 O.2       8 UNK        -0.5273 
     54 N          28.9535   -0.2547   -8.9696 N.am      9 UNK        -0.4262 
     55 CA         29.5916   -1.5217   -8.6007 C.3       9 UNK         0.0264 
     56 CB         29.6628   -1.6095   -7.0674 C.3       9 UNK        -0.1955 
     57 C          30.9989   -1.7058   -9.2104 C.2       9 UNK         0.5031 
     58 O          31.6188   -2.7382   -8.9513 O.2       9 UNK        -0.5390 
     59 N          31.4853   -0.7171   -9.9797 N.am      10 UNK        -0.4204 
     60 CA         32.8159   -0.6198  -10.5906 C.3       10 UNK         0.0237 
     61 CB         33.0831   -1.7792  -11.5758 C.3       10 UNK        -0.1985 
     62 C          33.9214   -0.4357   -9.5355 C.2       10 UNK         0.4970 
     63 O          34.9625   -1.0921   -9.6051 O.2       10 UNK        -0.4914 
     64 N          33.6644    0.4606   -8.5741 N.am      11 UNK        -0.4285 
     65 CA         34.6024    0.8607   -7.5160 C.3       11 UNK         0.1007 
     66 C          35.8690    1.5678   -8.0726 C.2       11 UNK         0.5703 
     67 N          37.0192    1.3675   -7.4436 N.am      11 UNK        -0.7361 
     68 O          35.8094    2.3267   -9.0388 O.2       11 UNK        -0.4986 
     69 C69        33.9143    1.7502   -6.4472 C.3       12 UNK        -0.0947 
     70 S70        32.4908    0.9372   -5.6518 S.3       12 UNK        -0.2240 
     71 C71        33.3315    0.0337   -4.3194 C.3       12 UNK         0.0194 
     72 H72        25.9593   -0.9750   -8.6026 H         1 UNK         0.0906 
     73 H73        24.4153   -1.0093   -7.7515 H         1 UNK         0.0906 
     74 H74        25.8194   -0.2314   -7.0081 H         1 UNK         0.0906 
     75 H75        26.3544   -1.5137   -5.2301 H         1 UNK         0.3140 
     76 H76        27.2199   -4.2813   -5.6880 H         1 UNK         0.1085 
     77 H77        27.4608   -2.6717   -3.0926 H         1 UNK         0.0836 
     78 H78        28.5598   -2.4594   -4.4140 H         1 UNK         0.0836 
     79 H79        30.5876   -4.1221   -4.9953 H         1 UNK         0.0731 
     80 H80        31.2252   -4.9632   -3.6041 H         1 UNK         0.0731 
     81 H81        32.2015   -2.3299   -5.0388 H         1 UNK         0.1312 
     82 H82        32.3148    0.5100   -1.8311 H         1 UNK         0.1406 
     83 H83        30.0319   -3.0885   -1.4116 H         1 UNK         0.1631 
     84 H84        31.2533    0.0433    0.2627 H         1 UNK         0.0717 
     85 H85        30.9406   -1.6363    0.6182 H         1 UNK         0.0717 
     86 H86        28.3123    1.7992   -0.3429 H         1 UNK         0.0934 
     87 H87        29.7563    1.3932   -1.2261 H         1 UNK         0.0934 
     88 H88        28.4005    0.0314   -2.8540 H         1 UNK         0.0739 
     89 H89        26.2506    0.5340   -1.0058 H         1 UNK         0.3093 
     90 H90        24.2276   -0.8186   -1.4668 H         1 UNK         0.0818 
     91 H91        24.1625    1.7225   -1.3168 H         1 UNK         0.0819 
     92 H92        23.5432    1.7996   -2.9593 H         1 UNK         0.0819 
     93 H93        22.5747    1.0823   -1.6745 H         1 UNK         0.0819 
     94 H94        23.9821   -1.0077   -4.2648 H         1 UNK         0.3041 
     95 H95        20.6278   -2.3689   -4.3526 H         1 UNK         0.0784 
     96 H96        20.9650   -0.1688   -5.4836 H         1 UNK         0.0793 
     97 H97        22.5409   -0.6841   -6.0649 H         1 UNK         0.0793 
     98 H98        21.0821   -1.5003   -6.6206 H         1 UNK         0.0793 
     99 H99        23.1456   -3.0543   -5.6764 H         1 UNK         0.3024 
    100 H100       23.6009   -6.1039   -3.9683 H         1 UNK         0.1171 
    101 H101       22.7002   -5.6628   -6.8714 H         1 UNK         0.0786 
    102 H102       23.5676   -7.0710   -6.2583 H         1 UNK         0.0786 
    103 H103       21.9293   -6.7441   -5.7186 H         1 UNK         0.0786 
    104 H104       24.9295   -4.8108   -6.1898 H         1 UNK         0.2977 
    105 H105       28.5654    1.1586   -4.7622 H         1 UNK         0.3127 
    106 H106       28.5769    4.0323   -4.8674 H         1 UNK         0.0770 
    107 H107       26.3180    2.4553   -6.2621 H         1 UNK         0.0814 
    108 H108       26.6845    4.1529   -6.5484 H         1 UNK         0.0814 
    109 H109       26.0873    3.6410   -4.9809 H         1 UNK         0.0814 
    110 H110       29.2668    4.7039   -7.0195 H         1 UNK         0.2983 
    111 H111       31.3670    3.2156   -8.0564 H         1 UNK         0.0947 
    112 H112       31.4031    4.9567   -9.8588 H         1 UNK         0.0806 
    113 H113       31.1787    5.6752   -8.2742 H         1 UNK         0.0806 
    114 H114       29.8060    5.5059   -9.3702 H         1 UNK         0.0806 
    115 H115       28.0258    2.9872   -8.9766 H         1 UNK         0.3000 
    116 H116       28.1975    1.6712  -11.4815 H         1 UNK         0.0850 
    117 H117       26.1186    1.4724   -9.2318 H         1 UNK         0.0810 
    118 H118       25.8894    0.8583  -10.8642 H         1 UNK         0.0810 
    119 H119       26.0793    2.5826  -10.6005 H         1 UNK         0.0810 
    120 H120       29.0346    0.4929   -8.2825 H         1 UNK         0.3040 
    121 H121       28.9641   -2.3397   -8.9606 H         1 UNK         0.0766 
    122 H122       30.4168   -0.9359   -6.6603 H         1 UNK         0.0812 
    123 H123       28.7125   -1.3496   -6.6061 H         1 UNK         0.0812 
    124 H124       29.9200   -2.6189   -6.7475 H         1 UNK         0.0812 
    125 H125       30.9124    0.1131  -10.0987 H         1 UNK         0.3205 
    126 H126       32.8074    0.3013  -11.1755 H         1 UNK         0.0754 
    127 H127       34.0077   -1.6120  -12.1296 H         1 UNK         0.0769 
    128 H128       32.2799   -1.8709  -12.3069 H         1 UNK         0.0769 
    129 H129       33.1833   -2.7368  -11.0644 H         1 UNK         0.0769 
    130 H130       32.7864    0.9557   -8.5956 H         1 UNK         0.2981 
    131 H131       34.9307   -0.0589   -7.0279 H         1 UNK         0.0541 
    132 H132       37.8484    1.8307   -7.7815 H         1 UNK         0.3459 
    133 H133       37.0786    0.7572   -6.6434 H         1 UNK         0.3459 
    134 H134       33.5616    2.6801   -6.8967 H         1 UNK         0.0612 
    135 H135       34.6242    2.0420   -5.6708 H         1 UNK         0.0612 
    136 H136       34.1056   -0.6046   -4.7471 H         1 UNK         0.0624 
    137 H137       33.8415    0.7461   -3.6691 H         1 UNK         0.0624 
@<TRIPOS>BOND
     1    1    2 1    
     2    1   72 1    
     3    1   73 1    
     4    1   74 1    
     5    2    3 2    
     6    2    4 am   BACKBONE|DICT|INTERRES
     7    4    5 1    
     8    4   75 1    
     9    5    6 1    
    10    5   35 1    
    11    5   76 1    
    12    6    7 1    
    13    6   77 1    
    14    6   78 1    
    15    7    8 1    
    16    8    9 1    
    17    8   79 1    
    18    8   80 1    
    19    9   10 ar   
    20    9   14 ar   
    21   10   11 ar   
    22   10   81 1    
    23   11   12 ar   
    24   11   71 1    
    25   12   13 ar   
    26   12   82 1    
    27   13   14 ar   
    28   13   15 1    
    29   14   83 1    
    30   15   16 1    
    31   15   84 1    
    32   15   85 1    
    33   16   17 1    
    34   17   18 1    
    35   17   86 1    
    36   17   87 1    
    37   18   19 1    
    38   18   37 1    
    39   18   88 1    
    40   19   20 am   BACKBONE|DICT|INTERRES
    41   19   89 1    
    42   20   21 2    
    43   20   22 1    
    44   22   23 1    
    45   22   24 1    
    46   22   90 1    
    47   23   91 1    
    48   23   92 1    
    49   23   93 1    
    50   24   25 am   BACKBONE|DICT|INTERRES
    51   24   94 1    
    52   25   26 2    
    53   25   27 1    
    54   27   28 1    
    55   27   29 1    
    56   27   95 1    
    57   28   96 1    
    58   28   97 1    
    59   28   98 1    
    60   29   30 am   BACKBONE|DICT|INTERRES
    61   29   99 1    
    62   30   31 2    
    63   30   32 1    
    64   32   33 1    
    65   32   34 1    
    66   32  100 1    
    67   33  101 1    
    68   33  102 1    
    69   33  103 1    
    70   34   35 am   BACKBONE|DICT|INTERRES
    71   34  104 1    
    72   35   36 2    
    73   37   38 2    
    74   37   39 am   BACKBONE|DICT|INTERRES
    75   39   40 1    
    76   39  105 1    
    77   40   41 1    
    78   40   42 1    
    79   40  106 1    
    80   41  107 1    
    81   41  108 1    
    82   41  109 1    
    83   42   43 2    
    84   42   44 am   BACKBONE|DICT|INTERRES
    85   44   45 1    
    86   44  110 1    
    87   45   46 1    
    88   45   47 1    
    89   45  111 1    
    90   46  112 1    
    91   46  113 1    
    92   46  114 1    
    93   47   48 2    
    94   47   49 am   BACKBONE|DICT|INTERRES
    95   49   50 1    
    96   49  115 1    
    97   50   51 1    
    98   50   52 1    
    99   50  116 1    
   100   51  117 1    
   101   51  118 1    
   102   51  119 1    
   103   52   53 2    
   104   52   54 am   BACKBONE|DICT|INTERRES
   105   54   55 1    
   106   54  120 1    
   107   55   56 1    
   108   55   57 1    
   109   55  121 1    
   110   56  122 1    
   111   56  123 1    
   112   56  124 1    
   113   57   58 2    
   114   57   59 am   BACKBONE|DICT|INTERRES
   115   59   60 1    
   116   59  125 1    
   117   60   61 1    
   118   60   62 1    
   119   60  126 1    
   120   61  127 1    
   121   61  128 1    
   122   61  129 1    
   123   62   63 2    
   124   62   64 am   BACKBONE|DICT|INTERRES
   125   64   65 1    
   126   64  130 1    
   127   65   66 1    
   128   65   69 1    
   129   65  131 1    
   130   66   67 am   BACKBONE|DICT|INTERRES
   131   66   68 2    
   132   67  132 1    
   133   67  133 1    
   134   69   70 1    
   135   69  134 1    
   136   69  135 1    
   137   70   71 1    
   138   71  136 1    
   139   71  137 1    
@<TRIPOS>SUBSTRUCTURE
     1 UNK         1 GROUP             0       ****    0 ROOT    
