@<TRIPOS>MOLECULE
3R137
137   139    1
SMALL
USER_CHARGES


@<TRIPOS>ATOM
      1 CA         29.4198    0.1772    0.2448 C.3       0 UNK        -0.2020 
      2 C          28.5146   -0.5705   -0.7218 C.2       0 UNK         0.4855 
      3 O          27.2937   -0.5323   -0.5675 O.2       0 UNK        -0.5197 
      4 N          29.1028   -1.2282   -1.7326 N.am      1 UNK        -0.4892 
      5 CA         28.4357   -2.0790   -2.7358 C.3       1 UNK         0.0835 
      6 C6         27.9020   -3.4114   -2.1350 C.3       12 UNK        -0.0855 
      7 S7         29.2368   -4.4392   -1.4312 S.3       12 UNK        -0.2931 
      8 C8         29.5446   -5.6176   -2.7887 C.3       12 UNK         0.0378 
      9 C9         29.9877   -4.9059   -4.0591 C.ar      12 UNK        -0.0802 
     10 C10        31.2819   -4.3874   -4.1569 C.ar      12 UNK        -0.0944 
     11 C11        31.6809   -3.6907   -5.3006 C.ar      12 UNK        -0.0787 
     12 C12        30.7774   -3.5131   -6.3533 C.ar      12 UNK        -0.0862 
     13 C13        29.4860   -4.0430   -6.2731 C.ar      12 UNK        -0.0733 
     14 C14        29.0984   -4.7424   -5.1262 C.ar      12 UNK        -0.0832 
     15 C15        28.5091   -3.8806   -7.4264 C.3       12 UNK         0.0240 
     16 S16        27.2672   -2.6004   -7.0655 S.3       12 UNK        -0.2522 
     17 C17        25.7493   -3.4258   -7.6471 C.3       12 UNK        -0.0967 
     18 CA         24.4305   -2.7293   -7.2246 C.3       5 UNK         0.0660 
     19 N          24.2573   -2.7004   -5.7641 N.am      5 UNK        -0.4015 
     20 C          23.0990   -2.9694   -5.1418 C.2       4 UNK         0.4946 
     21 O          22.0286   -3.1285   -5.7302 O.2       4 UNK        -0.5353 
     22 CA         23.1303   -3.1076   -3.6131 C.3       4 UNK         0.0277 
     23 CB         23.9410   -4.3463   -3.1917 C.3       4 UNK        -0.1981 
     24 N          23.6957   -1.9168   -2.9834 N.am      4 UNK        -0.4209 
     25 C          22.9956   -0.9962   -2.3038 C.2       3 UNK         0.4942 
     26 O          21.7795   -1.0601   -2.1185 O.2       3 UNK        -0.5208 
     27 CA         23.7708    0.2024   -1.7178 C.3       3 UNK         0.0250 
     28 CB         24.0226   -0.0072   -0.2161 C.3       3 UNK        -0.1990 
     29 N          25.0468    0.4583   -2.3922 N.am      3 UNK        -0.4232 
     30 C          25.1461    0.8923   -3.6584 C.2       2 UNK         0.4993 
     31 O          24.1730    1.2316   -4.3276 O.2       2 UNK        -0.5286 
     32 CA         26.5380    0.8969   -4.3202 C.3       2 UNK         0.0209 
     33 CB         27.1159    2.3202   -4.3485 C.3       2 UNK        -0.1931 
     34 N          27.5066   -0.0082   -3.6932 N.am      2 UNK        -0.4546 
     35 C          27.3513   -1.3328   -3.5459 C.2       1 UNK         0.5154 
     36 O          26.3697   -1.9423   -3.9774 O.2       1 UNK        -0.5181 
     37 C          24.2371   -1.3599   -7.9102 C.2       5 UNK         0.5014 
     38 O          24.3744   -1.2897   -9.1337 O.2       5 UNK        -0.5248 
     39 N          23.9198   -0.3054   -7.1429 N.am      6 UNK        -0.4434 
     40 CA         23.6541    1.0804   -7.5598 C.3       6 UNK         0.0363 
     41 CB         22.4660    1.1686   -8.5398 C.3       6 UNK        -0.1936 
     42 C          24.8840    1.8305   -8.1012 C.2       6 UNK         0.5081 
     43 O          25.2013    2.9077   -7.5975 O.2       6 UNK        -0.5248 
     44 N          25.5334    1.2725   -9.1285 N.am      7 UNK        -0.4718 
     45 CA         26.6652    1.8764   -9.8288 C.3       7 UNK         0.0273 
     46 CB         26.7739    1.2837  -11.2449 C.3       7 UNK        -0.1935 
     47 C          27.9787    1.7210   -9.0508 C.2       7 UNK         0.5018 
     48 O          28.5932    2.7264   -8.6945 O.2       7 UNK        -0.5186 
     49 N          28.4088    0.4661   -8.8493 N.am      8 UNK        -0.4240 
     50 CA         29.6431   -0.0026   -8.1912 C.3       8 UNK         0.0235 
     51 CB         29.6254    0.3372   -6.6892 C.3       8 UNK        -0.2000 
     52 C          30.9817    0.4408   -8.8190 C.2       8 UNK         0.4941 
     53 O          31.9882   -0.2280   -8.5828 O.2       8 UNK        -0.5273 
     54 N          30.9986    1.5594   -9.5603 N.am      9 UNK        -0.4262 
     55 CA         32.1621    2.2203  -10.1731 C.3       9 UNK         0.0264 
     56 CB         32.7331    1.3612  -11.3210 C.3       9 UNK        -0.1955 
     57 C          33.2332    2.6160   -9.1353 C.2       9 UNK         0.5031 
     58 O          34.4312    2.5352   -9.4178 O.2       9 UNK        -0.5390 
     59 N          32.7716    2.9642   -7.9221 N.am      10 UNK        -0.4204 
     60 CA         33.5491    3.2006   -6.6965 C.3       10 UNK         0.0237 
     61 CB         34.3679    4.5031   -6.8227 C.3       10 UNK        -0.1985 
     62 C          34.4237    2.0016   -6.2617 C.2       10 UNK         0.4970 
     63 O          35.3526    2.1914   -5.4747 O.2       10 UNK        -0.4914 
     64 N          34.1298    0.8031   -6.7890 N.am      11 UNK        -0.4285 
     65 CA         34.9337   -0.4220   -6.6756 C.3       11 UNK         0.1007 
     66 C          36.3615   -0.3064   -7.2935 C.2       11 UNK         0.5703 
     67 N          36.5940    0.5971   -8.2409 N.am      11 UNK        -0.7361 
     68 O          37.2644   -1.0614   -6.9394 O.2       11 UNK        -0.4986 
     69 C69        34.9057   -1.0378   -5.2476 C.3       12 UNK        -0.0947 
     70 S70        33.2086   -1.4617   -4.7283 S.3       12 UNK        -0.2240 
     71 C71        33.0938   -3.1441   -5.4056 C.3       12 UNK         0.0194 
     72 H72        30.4726    0.0725   -0.0164 H         1 UNK         0.0906 
     73 H73        29.1731    1.2385    0.2449 H         1 UNK         0.0906 
     74 H74        29.2817   -0.2047    1.2559 H         1 UNK         0.0906 
     75 H75        30.1113   -1.2096   -1.8014 H         1 UNK         0.3140 
     76 H76        29.2003   -2.3244   -3.4733 H         1 UNK         0.1085 
     77 H77        27.1688   -3.2101   -1.3522 H         1 UNK         0.0836 
     78 H78        27.3767   -4.0038   -2.8854 H         1 UNK         0.0836 
     79 H79        28.6448   -6.2087   -2.9667 H         1 UNK         0.0731 
     80 H80        30.3171   -6.3229   -2.4788 H         1 UNK         0.0731 
     81 H81        31.9732   -4.5128   -3.3345 H         1 UNK         0.1312 
     82 H82        31.0850   -2.9689   -7.2363 H         1 UNK         0.1406 
     83 H83        28.0951   -5.1417   -5.0608 H         1 UNK         0.1631 
     84 H84        28.0280   -4.8403   -7.6195 H         1 UNK         0.0717 
     85 H85        29.0335   -3.6162   -8.3457 H         1 UNK         0.0717 
     86 H86        25.8025   -3.5249   -8.7332 H         1 UNK         0.0934 
     87 H87        25.7426   -4.4464   -7.2610 H         1 UNK         0.0934 
     88 H88        23.6349   -3.3496   -7.6430 H         1 UNK         0.0739 
     89 H89        25.1002   -2.5453   -5.2133 H         1 UNK         0.3093 
     90 H90        22.1025   -3.2593   -3.2762 H         1 UNK         0.0818 
     91 H91        23.5317   -5.2514   -3.6423 H         1 UNK         0.0819 
     92 H92        24.9863   -4.2768   -3.4931 H         1 UNK         0.0819 
     93 H93        23.9159   -4.4838   -2.1106 H         1 UNK         0.0819 
     94 H94        24.6916   -1.7718   -3.1240 H         1 UNK         0.3041 
     95 H95        23.1431    1.0881   -1.8375 H         1 UNK         0.0784 
     96 H96        23.0832   -0.1344    0.3236 H         1 UNK         0.0793 
     97 H97        24.6282   -0.8952   -0.0299 H         1 UNK         0.0793 
     98 H98        24.5370    0.8471    0.2244 H         1 UNK         0.0793 
     99 H99        25.8881    0.1870   -1.8911 H         1 UNK         0.3024 
    100 H100       26.3996    0.5621   -5.3509 H         1 UNK         0.1171 
    101 H101       28.0572    2.3585   -4.8960 H         1 UNK         0.0786 
    102 H102       26.4297    3.0075   -4.8462 H         1 UNK         0.0786 
    103 H103       27.2930    2.7045   -3.3433 H         1 UNK         0.0786 
    104 H104       28.3258    0.4154   -3.2821 H         1 UNK         0.2977 
    105 H105       23.8553   -0.4604   -6.1459 H         1 UNK         0.3127 
    106 H106       23.3427    1.6097   -6.6599 H         1 UNK         0.0770 
    107 H107       22.6783    0.6880   -9.4949 H         1 UNK         0.0814 
    108 H108       22.2181    2.2092   -8.7529 H         1 UNK         0.0814 
    109 H109       21.5736    0.7029   -8.1217 H         1 UNK         0.0814 
    110 H110       25.2092    0.3590   -9.4389 H         1 UNK         0.2983 
    111 H111       26.4746    2.9472   -9.9336 H         1 UNK         0.0947 
    112 H112       27.6340    1.6937  -11.7765 H         1 UNK         0.0806 
    113 H113       25.8890    1.5189  -11.8366 H         1 UNK         0.0806 
    114 H114       26.8830    0.1987  -11.2317 H         1 UNK         0.0806 
    115 H115       27.8183   -0.2743   -9.2019 H         1 UNK         0.3000 
    116 H116       29.6248   -1.0892   -8.2805 H         1 UNK         0.0850 
    117 H117       30.4833   -0.1019   -6.1773 H         1 UNK         0.0810 
    118 H118       28.7309   -0.0582   -6.2115 H         1 UNK         0.0810 
    119 H119       29.6550    1.4126   -6.5147 H         1 UNK         0.0810 
    120 H120       30.1275    2.0826   -9.5906 H         1 UNK         0.3040 
    121 H121       31.7970    3.1533  -10.6049 H         1 UNK         0.0766 
    122 H122       33.1718    0.4334  -10.9522 H         1 UNK         0.0812 
    123 H123       33.5147    1.8978  -11.8602 H         1 UNK         0.0812 
    124 H124       31.9606    1.1025  -12.0450 H         1 UNK         0.0812 
    125 H125       31.7676    2.9906   -7.8072 H         1 UNK         0.3205 
    126 H126       32.8204    3.3427   -5.8971 H         1 UNK         0.0754 
    127 H127       34.8356    4.7683   -5.8737 H         1 UNK         0.0769 
    128 H128       33.7363    5.3421   -7.1146 H         1 UNK         0.0769 
    129 H129       35.1639    4.4095   -7.5622 H         1 UNK         0.0769 
    130 H130       33.3447    0.7228   -7.4258 H         1 UNK         0.2981 
    131 H131       34.4375   -1.1352   -7.3339 H         1 UNK         0.0541 
    132 H132       35.8579    1.2168   -8.5602 H         1 UNK         0.3459 
    133 H133       37.5146    0.6609   -8.6448 H         1 UNK         0.3459 
    134 H134       35.3319   -0.3461   -4.5200 H         1 UNK         0.0612 
    135 H135       35.5152   -1.9416   -5.1972 H         1 UNK         0.0612 
    136 H136       33.4098   -3.1405   -6.4497 H         1 UNK         0.0624 
    137 H137       33.7900   -3.7952   -4.8747 H         1 UNK         0.0624 
@<TRIPOS>BOND
     1    1    2 1    
     2    1   72 1    
     3    1   73 1    
     4    1   74 1    
     5    2    3 2    
     6    2    4 am   BACKBONE|DICT|INTERRES
     7    4    5 1    
     8    4   75 1    
     9    5    6 1    
    10    5   35 1    
    11    5   76 1    
    12    6    7 1    
    13    6   77 1    
    14    6   78 1    
    15    7    8 1    
    16    8    9 1    
    17    8   79 1    
    18    8   80 1    
    19    9   10 ar   
    20    9   14 ar   
    21   10   11 ar   
    22   10   81 1    
    23   11   12 ar   
    24   11   71 1    
    25   12   13 ar   
    26   12   82 1    
    27   13   14 ar   
    28   13   15 1    
    29   14   83 1    
    30   15   16 1    
    31   15   84 1    
    32   15   85 1    
    33   16   17 1    
    34   17   18 1    
    35   17   86 1    
    36   17   87 1    
    37   18   19 1    
    38   18   37 1    
    39   18   88 1    
    40   19   20 am   BACKBONE|DICT|INTERRES
    41   19   89 1    
    42   20   21 2    
    43   20   22 1    
    44   22   23 1    
    45   22   24 1    
    46   22   90 1    
    47   23   91 1    
    48   23   92 1    
    49   23   93 1    
    50   24   25 am   BACKBONE|DICT|INTERRES
    51   24   94 1    
    52   25   26 2    
    53   25   27 1    
    54   27   28 1    
    55   27   29 1    
    56   27   95 1    
    57   28   96 1    
    58   28   97 1    
    59   28   98 1    
    60   29   30 am   BACKBONE|DICT|INTERRES
    61   29   99 1    
    62   30   31 2    
    63   30   32 1    
    64   32   33 1    
    65   32   34 1    
    66   32  100 1    
    67   33  101 1    
    68   33  102 1    
    69   33  103 1    
    70   34   35 am   BACKBONE|DICT|INTERRES
    71   34  104 1    
    72   35   36 2    
    73   37   38 2    
    74   37   39 am   BACKBONE|DICT|INTERRES
    75   39   40 1    
    76   39  105 1    
    77   40   41 1    
    78   40   42 1    
    79   40  106 1    
    80   41  107 1    
    81   41  108 1    
    82   41  109 1    
    83   42   43 2    
    84   42   44 am   BACKBONE|DICT|INTERRES
    85   44   45 1    
    86   44  110 1    
    87   45   46 1    
    88   45   47 1    
    89   45  111 1    
    90   46  112 1    
    91   46  113 1    
    92   46  114 1    
    93   47   48 2    
    94   47   49 am   BACKBONE|DICT|INTERRES
    95   49   50 1    
    96   49  115 1    
    97   50   51 1    
    98   50   52 1    
    99   50  116 1    
   100   51  117 1    
   101   51  118 1    
   102   51  119 1    
   103   52   53 2    
   104   52   54 am   BACKBONE|DICT|INTERRES
   105   54   55 1    
   106   54  120 1    
   107   55   56 1    
   108   55   57 1    
   109   55  121 1    
   110   56  122 1    
   111   56  123 1    
   112   56  124 1    
   113   57   58 2    
   114   57   59 am   BACKBONE|DICT|INTERRES
   115   59   60 1    
   116   59  125 1    
   117   60   61 1    
   118   60   62 1    
   119   60  126 1    
   120   61  127 1    
   121   61  128 1    
   122   61  129 1    
   123   62   63 2    
   124   62   64 am   BACKBONE|DICT|INTERRES
   125   64   65 1    
   126   64  130 1    
   127   65   66 1    
   128   65   69 1    
   129   65  131 1    
   130   66   67 am   BACKBONE|DICT|INTERRES
   131   66   68 2    
   132   67  132 1    
   133   67  133 1    
   134   69   70 1    
   135   69  134 1    
   136   69  135 1    
   137   70   71 1    
   138   71  136 1    
   139   71  137 1    
@<TRIPOS>SUBSTRUCTURE
     1 UNK         1 GROUP             0       ****    0 ROOT    
