@<TRIPOS>MOLECULE
3R137
137   139    1
SMALL
USER_CHARGES


@<TRIPOS>ATOM
      1 CA         25.6356   -6.5001   -5.2230 C.3       0 UNK        -0.2020 
      2 C          25.6442   -5.7117   -3.9224 C.2       0 UNK         0.4855 
      3 O          24.5897   -5.2513   -3.4836 O.2       0 UNK        -0.5197 
      4 N          26.8298   -5.5462   -3.3170 N.am      1 UNK        -0.4892 
      5 CA         27.0995   -4.7979   -2.0806 C.3       1 UNK         0.0835 
      6 C6         28.6188   -4.8225   -1.7687 C.3       12 UNK        -0.0855 
      7 S7         29.0921   -3.9597   -0.2277 S.3       12 UNK        -0.2931 
      8 C8         30.8163   -3.4805   -0.5821 C.3       12 UNK         0.0378 
      9 C9         30.9249   -2.3896   -1.6420 C.ar      12 UNK        -0.0802 
     10 C10        31.3033   -2.7125   -2.9504 C.ar      12 UNK        -0.0944 
     11 C11        31.4322   -1.7146   -3.9209 C.ar      12 UNK        -0.0787 
     12 C12        31.1811   -0.3858   -3.5739 C.ar      12 UNK        -0.0862 
     13 C13        30.8089   -0.0446   -2.2695 C.ar      12 UNK        -0.0733 
     14 C14        30.6859   -1.0521   -1.3059 C.ar      12 UNK        -0.0832 
     15 C15        30.5740    1.4203   -1.9112 C.3       12 UNK         0.0240 
     16 S16        28.8908    1.7953   -1.3023 S.3       12 UNK        -0.2522 
     17 C17        27.7841    0.7504   -2.3081 C.3       12 UNK        -0.0967 
     18 CA         27.9355    0.9031   -3.8439 C.3       5 UNK         0.0660 
     19 N          27.6258   -0.3550   -4.5225 N.am      5 UNK        -0.4015 
     20 C          27.8387   -0.6284   -5.8144 C.2       4 UNK         0.4946 
     21 O          28.3823    0.1451   -6.5994 O.2       4 UNK        -0.5353 
     22 CA         27.3045   -1.9752   -6.3283 C.3       4 UNK         0.0277 
     23 CB         28.2982   -3.1162   -6.0494 C.3       4 UNK        -0.1981 
     24 N          26.0014   -2.2953   -5.7424 N.am      4 UNK        -0.4209 
     25 C          24.8648   -1.6440   -6.0294 C.2       3 UNK         0.4942 
     26 O          24.7839   -0.7484   -6.8701 O.2       3 UNK        -0.5208 
     27 CA         23.6214   -2.0242   -5.2080 C.3       3 UNK         0.0250 
     28 CB         22.9102   -3.2392   -5.8234 C.3       3 UNK        -0.1990 
     29 N          23.9396   -2.2905   -3.8016 N.am      3 UNK        -0.4232 
     30 C          24.3183   -1.3396   -2.9334 C.2       2 UNK         0.4993 
     31 O          24.3970   -0.1466   -3.2234 O.2       2 UNK        -0.5286 
     32 CA         24.7375   -1.7897   -1.5221 C.3       2 UNK         0.0209 
     33 CB         23.5170   -1.8440   -0.5902 C.3       2 UNK        -0.1931 
     34 N          25.4380   -3.0778   -1.4888 N.am      2 UNK        -0.4546 
     35 C          26.5518   -3.3596   -2.1793 C.2       1 UNK         0.5154 
     36 O          27.1102   -2.5550   -2.9238 O.2       1 UNK        -0.5181 
     37 C          27.1269    2.0889   -4.4042 C.2       5 UNK         0.5014 
     38 O          27.6996    3.1571   -4.6238 O.2       5 UNK        -0.5248 
     39 N          25.8283    1.8735   -4.6649 N.am      6 UNK        -0.4434 
     40 CA         24.9424    2.8365   -5.3232 C.3       6 UNK         0.0363 
     41 CB         23.4899    2.3395   -5.2506 C.3       6 UNK        -0.1936 
     42 C          25.3460    3.1233   -6.7801 C.2       6 UNK         0.5081 
     43 O          25.2854    4.2780   -7.2036 O.2       6 UNK        -0.5248 
     44 N          25.7580    2.0805   -7.5163 N.am      7 UNK        -0.4718 
     45 CA         26.2738    2.1918   -8.8838 C.3       7 UNK         0.0273 
     46 CB         26.3273    0.7971   -9.5281 C.3       7 UNK        -0.1935 
     47 C          27.6548    2.8666   -8.9508 C.2       7 UNK         0.5018 
     48 O          27.9150    3.6128   -9.8958 O.2       7 UNK        -0.5186 
     49 N          28.5179    2.5691   -7.9678 N.am      8 UNK        -0.4240 
     50 CA         29.9079    3.0047   -7.7741 C.3       8 UNK         0.0235 
     51 CB         30.0245    4.5367   -7.6642 C.3       8 UNK        -0.2000 
     52 C          30.8760    2.4312   -8.8208 C.2       8 UNK         0.4941 
     53 O          31.8643    1.7938   -8.4535 O.2       8 UNK        -0.5273 
     54 N          30.5447    2.5997  -10.1076 N.am      9 UNK        -0.4262 
     55 CA         31.2727    2.0843  -11.2738 C.3       9 UNK         0.0264 
     56 CB         30.6150    2.6352  -12.5496 C.3       9 UNK        -0.1955 
     57 C          31.3741    0.5466  -11.3388 C.2       9 UNK         0.5031 
     58 O          32.1723    0.0290  -12.1209 O.2       9 UNK        -0.5390 
     59 N          30.5859   -0.1520  -10.5099 N.am      10 UNK        -0.4204 
     60 CA         30.6333   -1.5967  -10.2934 C.3       10 UNK         0.0237 
     61 CB         29.4448   -2.0042   -9.4110 C.3       10 UNK        -0.1985 
     62 C          31.9566   -2.0933   -9.6791 C.2       10 UNK         0.4970 
     63 O          32.3001   -3.2554   -9.9013 O.2       10 UNK        -0.4914 
     64 N          32.6803   -1.2323   -8.9468 N.am      11 UNK        -0.4285 
     65 CA         34.0285   -1.5342   -8.4397 C.3       11 UNK         0.1007 
     66 C          34.9903   -0.3150   -8.3554 C.2       11 UNK         0.5703 
     67 N          34.5359    0.9255   -8.4885 N.am      11 UNK        -0.7361 
     68 O          36.1946   -0.5024   -8.1972 O.2       11 UNK        -0.4986 
     69 C69        34.0171   -2.4177   -7.1594 C.3       12 UNK        -0.0947 
     70 S70        33.5887   -1.5425   -5.6159 S.3       12 UNK        -0.2240 
     71 C71        31.8689   -2.0604   -5.3372 C.3       12 UNK         0.0194 
     72 H72        24.8941   -7.2970   -5.1729 H         1 UNK         0.0906 
     73 H73        25.3788   -5.8476   -6.0568 H         1 UNK         0.0906 
     74 H74        26.6041   -6.9535   -5.4328 H         1 UNK         0.0906 
     75 H75        27.6465   -5.9517   -3.7512 H         1 UNK         0.3140 
     76 H76        26.5794   -5.3105   -1.2689 H         1 UNK         0.1085 
     77 H77        29.1673   -4.3910   -2.6061 H         1 UNK         0.0836 
     78 H78        28.9629   -5.8547   -1.6862 H         1 UNK         0.0836 
     79 H79        31.3806   -4.3655   -0.8808 H         1 UNK         0.0731 
     80 H80        31.2772   -3.1286    0.3420 H         1 UNK         0.0731 
     81 H81        31.5076   -3.7417   -3.2117 H         1 UNK         0.1312 
     82 H82        31.2934    0.3842   -4.3251 H         1 UNK         0.1406 
     83 H83        30.4013   -0.7942   -0.2947 H         1 UNK         0.1631 
     84 H84        30.7759    2.0625   -2.7699 H         1 UNK         0.0717 
     85 H85        31.2928    1.7142   -1.1453 H         1 UNK         0.0717 
     86 H86        27.9935   -0.2772   -2.0084 H         1 UNK         0.0934 
     87 H87        26.7542    0.9301   -1.9941 H         1 UNK         0.0934 
     88 H88        28.9748    1.1168   -4.0855 H         1 UNK         0.0739 
     89 H89        27.2629   -1.1055   -3.9360 H         1 UNK         0.3093 
     90 H90        27.1743   -1.8932   -7.4092 H         1 UNK         0.0818 
     91 H91        27.9182   -4.0711   -6.4125 H         1 UNK         0.0819 
     92 H92        29.2481   -2.9379   -6.5517 H         1 UNK         0.0819 
     93 H93        28.5160   -3.2234   -4.9869 H         1 UNK         0.0819 
     94 H94        25.9969   -2.9597   -4.9818 H         1 UNK         0.3041 
     95 H95        22.9322   -1.1775   -5.2434 H         1 UNK         0.0784 
     96 H96        22.6330   -3.0435   -6.8602 H         1 UNK         0.0793 
     97 H97        23.5421   -4.1272   -5.8175 H         1 UNK         0.0793 
     98 H98        21.9940   -3.4774   -5.2829 H         1 UNK         0.0793 
     99 H99        23.9486   -3.2612   -3.5031 H         1 UNK         0.3024 
    100 H100       25.4277   -1.0365   -1.1367 H         1 UNK         0.1171 
    101 H101       23.8109   -2.0567    0.4379 H         1 UNK         0.0786 
    102 H102       22.9893   -0.8890   -0.5828 H         1 UNK         0.0786 
    103 H103       22.8039   -2.6083   -0.9020 H         1 UNK         0.0786 
    104 H104       25.0119   -3.8090   -0.9375 H         1 UNK         0.2977 
    105 H105       25.4048    0.9979   -4.3659 H         1 UNK         0.3127 
    106 H106       25.0072    3.7767   -4.7714 H         1 UNK         0.0770 
    107 H107       23.3641    1.3839   -5.7606 H         1 UNK         0.0814 
    108 H108       22.8094    3.0521   -5.7186 H         1 UNK         0.0814 
    109 H109       23.1658    2.2119   -4.2176 H         1 UNK         0.0814 
    110 H110       25.7118    1.1496   -7.1157 H         1 UNK         0.2983 
    111 H111       25.5790    2.8070   -9.4599 H         1 UNK         0.0947 
    112 H112       26.6908    0.8529  -10.5551 H         1 UNK         0.0806 
    113 H113       25.3391    0.3374   -9.5580 H         1 UNK         0.0806 
    114 H114       26.9892    0.1248   -8.9822 H         1 UNK         0.0806 
    115 H115       28.2260    1.8453   -7.3129 H         1 UNK         0.3000 
    116 H116       30.2073    2.5860   -6.8115 H         1 UNK         0.0850 
    117 H117       31.0470    4.8311   -7.4242 H         1 UNK         0.0810 
    118 H118       29.3813    4.9222   -6.8728 H         1 UNK         0.0810 
    119 H119       29.7521    5.0402   -8.5920 H         1 UNK         0.0810 
    120 H120       29.6798    3.1046  -10.2909 H         1 UNK         0.3040 
    121 H121       32.2934    2.4679  -11.2180 H         1 UNK         0.0766 
    122 H122       30.6217    3.7253  -12.5608 H         1 UNK         0.0812 
    123 H123       29.5795    2.3049  -12.6432 H         1 UNK         0.0812 
    124 H124       31.1468    2.3011  -13.4417 H         1 UNK         0.0812 
    125 H125       29.9672    0.3727   -9.9102 H         1 UNK         0.3205 
    126 H126       30.5236   -2.0820  -11.2655 H         1 UNK         0.0754 
    127 H127       29.4470   -3.0778   -9.2169 H         1 UNK         0.0769 
    128 H128       28.4940   -1.7642   -9.8870 H         1 UNK         0.0769 
    129 H129       29.4786   -1.4950   -8.4482 H         1 UNK         0.0769 
    130 H130       32.3431   -0.2897   -8.7968 H         1 UNK         0.2981 
    131 H131       34.5016   -2.1432   -9.2130 H         1 UNK         0.0541 
    132 H132       35.2008    1.6805   -8.4433 H         1 UNK         0.3459 
    133 H133       33.5456    1.1483   -8.5405 H         1 UNK         0.3459 
    134 H134       35.0084   -2.8500   -7.0136 H         1 UNK         0.0612 
    135 H135       33.3525   -3.2721   -7.2923 H         1 UNK         0.0612 
    136 H136       31.2223   -1.5603   -6.0601 H         1 UNK         0.0624 
    137 H137       31.7722   -3.1326   -5.5136 H         1 UNK         0.0624 
@<TRIPOS>BOND
     1    1    2 1    
     2    1   72 1    
     3    1   73 1    
     4    1   74 1    
     5    2    3 2    
     6    2    4 am   BACKBONE|DICT|INTERRES
     7    4    5 1    
     8    4   75 1    
     9    5    6 1    
    10    5   35 1    
    11    5   76 1    
    12    6    7 1    
    13    6   77 1    
    14    6   78 1    
    15    7    8 1    
    16    8    9 1    
    17    8   79 1    
    18    8   80 1    
    19    9   10 ar   
    20    9   14 ar   
    21   10   11 ar   
    22   10   81 1    
    23   11   12 ar   
    24   11   71 1    
    25   12   13 ar   
    26   12   82 1    
    27   13   14 ar   
    28   13   15 1    
    29   14   83 1    
    30   15   16 1    
    31   15   84 1    
    32   15   85 1    
    33   16   17 1    
    34   17   18 1    
    35   17   86 1    
    36   17   87 1    
    37   18   19 1    
    38   18   37 1    
    39   18   88 1    
    40   19   20 am   BACKBONE|DICT|INTERRES
    41   19   89 1    
    42   20   21 2    
    43   20   22 1    
    44   22   23 1    
    45   22   24 1    
    46   22   90 1    
    47   23   91 1    
    48   23   92 1    
    49   23   93 1    
    50   24   25 am   BACKBONE|DICT|INTERRES
    51   24   94 1    
    52   25   26 2    
    53   25   27 1    
    54   27   28 1    
    55   27   29 1    
    56   27   95 1    
    57   28   96 1    
    58   28   97 1    
    59   28   98 1    
    60   29   30 am   BACKBONE|DICT|INTERRES
    61   29   99 1    
    62   30   31 2    
    63   30   32 1    
    64   32   33 1    
    65   32   34 1    
    66   32  100 1    
    67   33  101 1    
    68   33  102 1    
    69   33  103 1    
    70   34   35 am   BACKBONE|DICT|INTERRES
    71   34  104 1    
    72   35   36 2    
    73   37   38 2    
    74   37   39 am   BACKBONE|DICT|INTERRES
    75   39   40 1    
    76   39  105 1    
    77   40   41 1    
    78   40   42 1    
    79   40  106 1    
    80   41  107 1    
    81   41  108 1    
    82   41  109 1    
    83   42   43 2    
    84   42   44 am   BACKBONE|DICT|INTERRES
    85   44   45 1    
    86   44  110 1    
    87   45   46 1    
    88   45   47 1    
    89   45  111 1    
    90   46  112 1    
    91   46  113 1    
    92   46  114 1    
    93   47   48 2    
    94   47   49 am   BACKBONE|DICT|INTERRES
    95   49   50 1    
    96   49  115 1    
    97   50   51 1    
    98   50   52 1    
    99   50  116 1    
   100   51  117 1    
   101   51  118 1    
   102   51  119 1    
   103   52   53 2    
   104   52   54 am   BACKBONE|DICT|INTERRES
   105   54   55 1    
   106   54  120 1    
   107   55   56 1    
   108   55   57 1    
   109   55  121 1    
   110   56  122 1    
   111   56  123 1    
   112   56  124 1    
   113   57   58 2    
   114   57   59 am   BACKBONE|DICT|INTERRES
   115   59   60 1    
   116   59  125 1    
   117   60   61 1    
   118   60   62 1    
   119   60  126 1    
   120   61  127 1    
   121   61  128 1    
   122   61  129 1    
   123   62   63 2    
   124   62   64 am   BACKBONE|DICT|INTERRES
   125   64   65 1    
   126   64  130 1    
   127   65   66 1    
   128   65   69 1    
   129   65  131 1    
   130   66   67 am   BACKBONE|DICT|INTERRES
   131   66   68 2    
   132   67  132 1    
   133   67  133 1    
   134   69   70 1    
   135   69  134 1    
   136   69  135 1    
   137   70   71 1    
   138   71  136 1    
   139   71  137 1    
@<TRIPOS>SUBSTRUCTURE
     1 UNK         1 GROUP             0       ****    0 ROOT    
