@<TRIPOS>MOLECULE
3R137
137   139    1
SMALL
USER_CHARGES


@<TRIPOS>ATOM
      1 CA         25.2128   -6.8182    1.2380 C.3       0 UNK        -0.2020 
      2 C          25.7016   -5.3787    1.2969 C.2       0 UNK         0.4855 
      3 O          25.2738   -4.6234    2.1699 O.2       0 UNK        -0.5197 
      4 N          26.5976   -4.9952    0.3770 N.am      1 UNK        -0.4892 
      5 CA         27.1551   -3.6399    0.2617 C.3       1 UNK         0.0835 
      6 C6         28.3967   -3.6265   -0.6637 C.3       12 UNK        -0.0855 
      7 S7         29.5862   -2.3073   -0.2490 S.3       12 UNK        -0.2931 
      8 C8         31.1084   -2.9498   -1.0194 C.3       12 UNK         0.0378 
      9 C9         31.0627   -2.8369   -2.5372 C.ar      12 UNK        -0.0802 
     10 C10        31.6536   -1.7462   -3.1809 C.ar      12 UNK        -0.0944 
     11 C11        31.6136   -1.6371   -4.5741 C.ar      12 UNK        -0.0787 
     12 C12        30.9608   -2.6216   -5.3229 C.ar      12 UNK        -0.0862 
     13 C13        30.3614   -3.7172   -4.6913 C.ar      12 UNK        -0.0733 
     14 C14        30.4352   -3.8257   -3.3002 C.ar      12 UNK        -0.0832 
     15 C15        29.6559   -4.8102   -5.4893 C.3       12 UNK         0.0240 
     16 S16        28.5525   -4.1903   -6.8022 S.3       12 UNK        -0.2522 
     17 C17        27.3311   -3.1905   -5.8808 C.3       12 UNK        -0.0967 
     18 CA         26.8903   -1.9604   -6.7131 C.3       5 UNK         0.0660 
     19 N          25.5486   -1.4843   -6.3628 N.am      5 UNK        -0.4015 
     20 C          24.8062   -0.7129   -7.1737 C.2       4 UNK         0.4946 
     21 O          25.1738   -0.3498   -8.2902 O.2       4 UNK        -0.5353 
     22 CA         23.4495   -0.2183   -6.6438 C.3       4 UNK         0.0277 
     23 CB         22.3662   -1.2896   -6.8454 C.3       4 UNK        -0.1981 
     24 N          23.4969    0.1753   -5.2360 N.am      4 UNK        -0.4209 
     25 C          24.2702    1.1531   -4.7423 C.2       3 UNK         0.4942 
     26 O          24.9560    1.8972   -5.4410 O.2       3 UNK        -0.5208 
     27 CA         24.3287    1.2990   -3.2115 C.3       3 UNK         0.0250 
     28 CB         23.3956    2.4277   -2.7454 C.3       3 UNK        -0.1990 
     29 N          24.0132    0.0698   -2.4739 N.am      3 UNK        -0.4232 
     30 C          24.6836   -1.0877   -2.5674 C.2       2 UNK         0.4993 
     31 O          25.6272   -1.2820   -3.3408 O.2       2 UNK        -0.5286 
     32 CA         24.1495   -2.2445   -1.7086 C.3       2 UNK         0.0209 
     33 CB         23.2410   -3.1547   -2.5519 C.3       2 UNK        -0.1931 
     34 N          25.2273   -3.0476   -1.1333 N.am      2 UNK        -0.4546 
     35 C          26.0956   -2.6180   -0.2055 C.2       1 UNK         0.5154 
     36 O          26.0594   -1.4939    0.2989 O.2       1 UNK        -0.5181 
     37 C          27.9183   -0.8141   -6.6633 C.2       5 UNK         0.5014 
     38 O          28.7646   -0.7266   -7.5524 O.2       5 UNK        -0.5248 
     39 N          27.7846    0.0815   -5.6726 N.am      6 UNK        -0.4434 
     40 CA         28.5926    1.2990   -5.5445 C.3       6 UNK         0.0363 
     41 CB         28.3021    1.9746   -4.1959 C.3       6 UNK        -0.1936 
     42 C          28.4055    2.2917   -6.7091 C.2       6 UNK         0.5081 
     43 O          29.3289    3.0502   -7.0037 O.2       6 UNK        -0.5248 
     44 N          27.2299    2.2724   -7.3498 N.am      7 UNK        -0.4718 
     45 CA         26.9401    3.0261   -8.5676 C.3       7 UNK         0.0273 
     46 CB         25.4284    3.2942   -8.6518 C.3       7 UNK        -0.1935 
     47 C          27.4358    2.3028   -9.8322 C.2       7 UNK         0.5018 
     48 O          27.9855    2.9585  -10.7181 O.2       7 UNK        -0.5186 
     49 N          27.1971    0.9855   -9.9187 N.am      8 UNK        -0.4240 
     50 CA         27.4768    0.1723  -11.1055 C.3       8 UNK         0.0235 
     51 CB         26.6702   -1.1349  -11.0374 C.3       8 UNK        -0.2000 
     52 C          28.9661   -0.1357  -11.3283 C.2       8 UNK         0.4941 
     53 O          29.4149   -0.1020  -12.4760 O.2       8 UNK        -0.5273 
     54 N          29.6953   -0.4733  -10.2569 N.am      9 UNK        -0.4262 
     55 CA         31.1113   -0.8460  -10.3140 C.3       9 UNK         0.0264 
     56 CB         31.4614   -1.6516   -9.0532 C.3       9 UNK        -0.1955 
     57 C          32.0264    0.3828  -10.4315 C.2       9 UNK         0.5031 
     58 O          31.6014    1.5048  -10.1490 O.2       9 UNK        -0.5390 
     59 N          33.2975    0.1414  -10.7842 N.am      10 UNK        -0.4204 
     60 CA         34.3539    1.1603  -10.8666 C.3       10 UNK         0.0237 
     61 CB         35.6386    0.5211  -11.4188 C.3       10 UNK        -0.1985 
     62 C          34.6375    1.8750   -9.5304 C.2       10 UNK         0.4970 
     63 O          35.0119    3.0481   -9.5421 O.2       10 UNK        -0.4914 
     64 N          34.4283    1.1665   -8.4137 N.am      11 UNK        -0.4285 
     65 CA         34.4226    1.7153   -7.0505 C.3       11 UNK         0.1007 
     66 C          33.1338    2.5056   -6.6706 C.2       11 UNK         0.5703 
     67 N          32.1065    2.5591   -7.5083 N.am      11 UNK        -0.7361 
     68 O          33.0658    3.0775   -5.5854 O.2       11 UNK        -0.4986 
     69 C69        34.7805    0.6310   -5.9950 C.3       12 UNK        -0.0947 
     70 S70        33.8117   -0.9169   -6.0988 S.3       12 UNK        -0.2240 
     71 C71        32.2653   -0.4483   -5.2625 C.3       12 UNK         0.0194 
     72 H72        25.4401   -7.3299    2.1728 H         1 UNK         0.0906 
     73 H73        24.1333   -6.8417    1.0907 H         1 UNK         0.0906 
     74 H74        25.6778   -7.3756    0.4251 H         1 UNK         0.0906 
     75 H75        26.9183   -5.6668   -0.3065 H         1 UNK         0.3140 
     76 H76        27.4680   -3.3425    1.2656 H         1 UNK         0.1085 
     77 H77        28.9287   -4.5749   -0.5725 H         1 UNK         0.0836 
     78 H78        28.1101   -3.5407   -1.7140 H         1 UNK         0.0836 
     79 H79        31.9593   -2.3887   -0.6297 H         1 UNK         0.0731 
     80 H80        31.2707   -3.9864   -0.7201 H         1 UNK         0.0731 
     81 H81        32.1465   -0.9819   -2.5955 H         1 UNK         0.1312 
     82 H82        30.9195   -2.5357   -6.3989 H         1 UNK         0.1406 
     83 H83        29.9945   -4.6807   -2.8070 H         1 UNK         0.1631 
     84 H84        29.0698   -5.4525   -4.8301 H         1 UNK         0.0717 
     85 H85        30.4136   -5.4481   -5.9459 H         1 UNK         0.0717 
     86 H86        26.4756   -3.8374   -5.6802 H         1 UNK         0.0934 
     87 H87        27.7178   -2.8942   -4.9034 H         1 UNK         0.0934 
     88 H88        26.8314   -2.2798   -7.7563 H         1 UNK         0.0739 
     89 H89        25.2323   -1.6682   -5.4180 H         1 UNK         0.3093 
     90 H90        23.1718    0.6640   -7.2247 H         1 UNK         0.0818 
     91 H91        21.3823   -0.9182   -6.5581 H         1 UNK         0.0819 
     92 H92        22.3039   -1.5870   -7.8933 H         1 UNK         0.0819 
     93 H93        22.5697   -2.1892   -6.2630 H         1 UNK         0.0819 
     94 H94        22.9507   -0.3722   -4.5879 H         1 UNK         0.3041 
     95 H95        25.3525    1.5748   -2.9530 H         1 UNK         0.0784 
     96 H96        23.6272    3.3622   -3.2591 H         1 UNK         0.0793 
     97 H97        22.3487    2.1965   -2.9464 H         1 UNK         0.0793 
     98 H98        23.5006    2.6151   -1.6765 H         1 UNK         0.0793 
     99 H99        23.2391    0.1288   -1.8273 H         1 UNK         0.3024 
    100 H100       23.5653   -1.8337   -0.8818 H         1 UNK         0.1171 
    101 H101       22.4016   -2.5960   -2.9680 H         1 UNK         0.0786 
    102 H102       22.8219   -3.9628   -1.9518 H         1 UNK         0.0786 
    103 H103       23.7809   -3.6027   -3.3874 H         1 UNK         0.0786 
    104 H104       25.3367   -3.9847   -1.4907 H         1 UNK         0.2977 
    105 H105       27.0617   -0.0654   -4.9807 H         1 UNK         0.3127 
    106 H106       29.6393    0.9961   -5.5463 H         1 UNK         0.0770 
    107 H107       28.4442    1.2851   -3.3634 H         1 UNK         0.0814 
    108 H108       27.2843    2.3606   -4.1492 H         1 UNK         0.0814 
    109 H109       28.9741    2.8188   -4.0361 H         1 UNK         0.0814 
    110 H110       26.4873    1.6926   -6.9776 H         1 UNK         0.2983 
    111 H111       27.4488    3.9916   -8.5159 H         1 UNK         0.0947 
    112 H112       25.1842    3.8774   -9.5407 H         1 UNK         0.0806 
    113 H113       25.0788    3.8579   -7.7865 H         1 UNK         0.0806 
    114 H114       24.8532    2.3689   -8.6993 H         1 UNK         0.0806 
    115 H115       26.6837    0.5305   -9.1691 H         1 UNK         0.3000 
    116 H116       27.1281    0.7293  -11.9780 H         1 UNK         0.0850 
    117 H117       26.8448   -1.7501  -11.9212 H         1 UNK         0.0810 
    118 H118       25.5992   -0.9377  -10.9871 H         1 UNK         0.0810 
    119 H119       26.9421   -1.7305  -10.1654 H         1 UNK         0.0810 
    120 H120       29.2688   -0.4544   -9.3319 H         1 UNK         0.3040 
    121 H121       31.2702   -1.4812  -11.1880 H         1 UNK         0.0766 
    122 H122       32.4788   -2.0416   -9.0936 H         1 UNK         0.0812 
    123 H123       30.7929   -2.5039   -8.9275 H         1 UNK         0.0812 
    124 H124       31.3840   -1.0325   -8.1598 H         1 UNK         0.0812 
    125 H125       33.5691   -0.8077  -10.9992 H         1 UNK         0.3205 
    126 H126       34.0190    1.9213  -11.5747 H         1 UNK         0.0754 
    127 H127       36.4333    1.2626  -11.5142 H         1 UNK         0.0769 
    128 H128       35.4768    0.0949  -12.4091 H         1 UNK         0.0769 
    129 H129       36.0092   -0.2711  -10.7669 H         1 UNK         0.0769 
    130 H130       34.1251    0.2080   -8.4950 H         1 UNK         0.2981 
    131 H131       35.2207    2.4586   -7.0039 H         1 UNK         0.0541 
    132 H132       32.1349    2.1230   -8.4242 H         1 UNK         0.3459 
    133 H133       31.2471    3.0168   -7.2233 H         1 UNK         0.3459 
    134 H134       34.7224    1.0283   -4.9800 H         1 UNK         0.0612 
    135 H135       35.8265    0.3511   -6.1277 H         1 UNK         0.0612 
    136 H136       32.4571    0.3455   -4.5391 H         1 UNK         0.0624 
    137 H137       31.5829   -0.0343   -6.0038 H         1 UNK         0.0624 
@<TRIPOS>BOND
     1    1    2 1    
     2    1   72 1    
     3    1   73 1    
     4    1   74 1    
     5    2    3 2    
     6    2    4 am   BACKBONE|DICT|INTERRES
     7    4    5 1    
     8    4   75 1    
     9    5    6 1    
    10    5   35 1    
    11    5   76 1    
    12    6    7 1    
    13    6   77 1    
    14    6   78 1    
    15    7    8 1    
    16    8    9 1    
    17    8   79 1    
    18    8   80 1    
    19    9   10 ar   
    20    9   14 ar   
    21   10   11 ar   
    22   10   81 1    
    23   11   12 ar   
    24   11   71 1    
    25   12   13 ar   
    26   12   82 1    
    27   13   14 ar   
    28   13   15 1    
    29   14   83 1    
    30   15   16 1    
    31   15   84 1    
    32   15   85 1    
    33   16   17 1    
    34   17   18 1    
    35   17   86 1    
    36   17   87 1    
    37   18   19 1    
    38   18   37 1    
    39   18   88 1    
    40   19   20 am   BACKBONE|DICT|INTERRES
    41   19   89 1    
    42   20   21 2    
    43   20   22 1    
    44   22   23 1    
    45   22   24 1    
    46   22   90 1    
    47   23   91 1    
    48   23   92 1    
    49   23   93 1    
    50   24   25 am   BACKBONE|DICT|INTERRES
    51   24   94 1    
    52   25   26 2    
    53   25   27 1    
    54   27   28 1    
    55   27   29 1    
    56   27   95 1    
    57   28   96 1    
    58   28   97 1    
    59   28   98 1    
    60   29   30 am   BACKBONE|DICT|INTERRES
    61   29   99 1    
    62   30   31 2    
    63   30   32 1    
    64   32   33 1    
    65   32   34 1    
    66   32  100 1    
    67   33  101 1    
    68   33  102 1    
    69   33  103 1    
    70   34   35 am   BACKBONE|DICT|INTERRES
    71   34  104 1    
    72   35   36 2    
    73   37   38 2    
    74   37   39 am   BACKBONE|DICT|INTERRES
    75   39   40 1    
    76   39  105 1    
    77   40   41 1    
    78   40   42 1    
    79   40  106 1    
    80   41  107 1    
    81   41  108 1    
    82   41  109 1    
    83   42   43 2    
    84   42   44 am   BACKBONE|DICT|INTERRES
    85   44   45 1    
    86   44  110 1    
    87   45   46 1    
    88   45   47 1    
    89   45  111 1    
    90   46  112 1    
    91   46  113 1    
    92   46  114 1    
    93   47   48 2    
    94   47   49 am   BACKBONE|DICT|INTERRES
    95   49   50 1    
    96   49  115 1    
    97   50   51 1    
    98   50   52 1    
    99   50  116 1    
   100   51  117 1    
   101   51  118 1    
   102   51  119 1    
   103   52   53 2    
   104   52   54 am   BACKBONE|DICT|INTERRES
   105   54   55 1    
   106   54  120 1    
   107   55   56 1    
   108   55   57 1    
   109   55  121 1    
   110   56  122 1    
   111   56  123 1    
   112   56  124 1    
   113   57   58 2    
   114   57   59 am   BACKBONE|DICT|INTERRES
   115   59   60 1    
   116   59  125 1    
   117   60   61 1    
   118   60   62 1    
   119   60  126 1    
   120   61  127 1    
   121   61  128 1    
   122   61  129 1    
   123   62   63 2    
   124   62   64 am   BACKBONE|DICT|INTERRES
   125   64   65 1    
   126   64  130 1    
   127   65   66 1    
   128   65   69 1    
   129   65  131 1    
   130   66   67 am   BACKBONE|DICT|INTERRES
   131   66   68 2    
   132   67  132 1    
   133   67  133 1    
   134   69   70 1    
   135   69  134 1    
   136   69  135 1    
   137   70   71 1    
   138   71  136 1    
   139   71  137 1    
@<TRIPOS>SUBSTRUCTURE
     1 UNK         1 GROUP             0       ****    0 ROOT    
