@<TRIPOS>MOLECULE
3R137
137   139    1
SMALL
USER_CHARGES


@<TRIPOS>ATOM
      1 CA         24.6623   -5.6048   -0.9253 C.3       0 UNK        -0.2020 
      2 C          25.3975   -4.3079   -1.2262 C.2       0 UNK         0.4855 
      3 O          25.0613   -3.6295   -2.1958 O.2       0 UNK        -0.5197 
      4 N          26.3863   -3.9530   -0.3930 N.am      1 UNK        -0.4892 
      5 CA         27.2572   -2.7668   -0.4661 C.3       1 UNK         0.0835 
      6 C6         28.0535   -2.6675   -1.7977 C.3       12 UNK        -0.0855 
      7 S7         29.7038   -1.9252   -1.5548 S.3       12 UNK        -0.2931 
      8 C8         30.8120   -3.3496   -1.7974 C.3       12 UNK         0.0378 
      9 C9         31.0982   -3.6242   -3.2694 C.ar      12 UNK        -0.0802 
     10 C10        32.1942   -3.0204   -3.8970 C.ar      12 UNK        -0.0944 
     11 C11        32.5102   -3.3250   -5.2251 C.ar      12 UNK        -0.0787 
     12 C12        31.7073   -4.2252   -5.9329 C.ar      12 UNK        -0.0862 
     13 C13        30.6081   -4.8342   -5.3192 C.ar      12 UNK        -0.0733 
     14 C14        30.3091   -4.5286   -3.9879 C.ar      12 UNK        -0.0832 
     15 C15        29.7910   -5.8797   -6.0689 C.3       12 UNK         0.0240 
     16 S16        28.8704   -5.1889   -7.4786 S.3       12 UNK        -0.2522 
     17 C17        27.5502   -4.2467   -6.6440 C.3       12 UNK        -0.0967 
     18 CA         27.0914   -3.0304   -7.4932 C.3       5 UNK         0.0660 
     19 N          25.7622   -2.5268   -7.1254 N.am      5 UNK        -0.4015 
     20 C          25.4019   -1.9763   -5.9587 C.2       4 UNK         0.4946 
     21 O          26.1526   -1.8583   -4.9872 O.2       4 UNK        -0.5353 
     22 CA         23.9648   -1.4594   -5.8621 C.3       4 UNK         0.0277 
     23 CB         23.0207   -2.5553   -5.3362 C.3       4 UNK        -0.1981 
     24 N          23.9612   -0.3180   -4.9549 N.am      4 UNK        -0.4209 
     25 C          23.0646    0.6726   -4.9287 C.2       3 UNK         0.4942 
     26 O          22.1004    0.7340   -5.6938 O.2       3 UNK        -0.5208 
     27 CA         23.2731    1.7637   -3.8557 C.3       3 UNK         0.0250 
     28 CB         22.1155    2.7791   -3.8070 C.3       3 UNK        -0.1990 
     29 N          23.4565    1.1877   -2.5190 N.am      3 UNK        -0.4232 
     30 C          24.5983    0.6619   -2.0562 C.2       2 UNK         0.4993 
     31 O          25.6454    0.6651   -2.7073 O.2       2 UNK        -0.5286 
     32 CA         24.5695   -0.0031   -0.6689 C.3       2 UNK         0.0209 
     33 CB         23.1519   -0.3615   -0.1760 C.3       2 UNK        -0.1931 
     34 N          25.3645   -1.2264   -0.7341 N.am      2 UNK        -0.4546 
     35 C          26.5343   -1.4431   -0.1270 C.2       1 UNK         0.5154 
     36 O          27.0363   -0.6651    0.6867 O.2       1 UNK        -0.5181 
     37 C          28.1352   -1.8963   -7.5439 C.2       5 UNK         0.5014 
     38 O          28.5000   -1.4574   -8.6352 O.2       5 UNK        -0.5248 
     39 N          28.5437   -1.4016   -6.3690 N.am      6 UNK        -0.4434 
     40 CA         29.4997   -0.3135   -6.1651 C.3       6 UNK         0.0363 
     41 CB         29.6697   -0.0750   -4.6592 C.3       6 UNK        -0.1936 
     42 C          29.1091    0.9970   -6.8588 C.2       6 UNK         0.5081 
     43 O          29.9909    1.7046   -7.3429 O.2       6 UNK        -0.5248 
     44 N          27.8008    1.2766   -6.9197 N.am      7 UNK        -0.4718 
     45 CA         27.2238    2.4336   -7.6060 C.3       7 UNK         0.0273 
     46 CB         25.7466    2.5683   -7.2010 C.3       7 UNK        -0.1935 
     47 C          27.3614    2.3725   -9.1390 C.2       7 UNK         0.5018 
     48 O          27.4181    3.4252   -9.7747 O.2       7 UNK        -0.5186 
     49 N          27.4115    1.1571   -9.7021 N.am      8 UNK        -0.4240 
     50 CA         27.5921    0.9141  -11.1344 C.3       8 UNK         0.0235 
     51 CB         26.7937   -0.3335  -11.5488 C.3       8 UNK        -0.2000 
     52 C          29.0778    0.7497  -11.4838 C.2       8 UNK         0.4941 
     53 O          29.5328    1.3117  -12.4802 O.2       8 UNK        -0.5273 
     54 N          29.8072   -0.0087  -10.6540 N.am      9 UNK        -0.4262 
     55 CA         31.2358   -0.2936  -10.8061 C.3       9 UNK         0.0264 
     56 CB         31.5783   -1.5311   -9.9614 C.3       9 UNK        -0.1955 
     57 C          32.1567    0.8886  -10.4464 C.2       9 UNK         0.5031 
     58 O          33.3310    0.8553  -10.8172 O.2       9 UNK        -0.5390 
     59 N          31.6191    1.8955   -9.7408 N.am      10 UNK        -0.4204 
     60 CA         32.2917    3.0915   -9.2202 C.3       10 UNK         0.0237 
     61 CB         32.8459    3.9719  -10.3615 C.3       10 UNK        -0.1985 
     62 C          33.3384    2.7424   -8.1455 C.2       10 UNK         0.4970 
     63 O          34.4627    3.2463   -8.1867 O.2       10 UNK        -0.4914 
     64 N          32.9401    1.8810   -7.2008 N.am      11 UNK        -0.4285 
     65 CA         33.7737    1.4369   -6.0696 C.3       11 UNK         0.1007 
     66 C          33.8577    2.4639   -4.9032 C.2       11 UNK         0.5703 
     67 N          33.0450    3.5143   -4.8779 N.am      11 UNK        -0.7361 
     68 O          34.6854    2.3094   -4.0084 O.2       11 UNK        -0.4986 
     69 C69        33.3559    0.0373   -5.5454 C.3       12 UNK        -0.0947 
     70 S70        33.4027   -1.2423   -6.8420 S.3       12 UNK        -0.2240 
     71 C71        33.7571   -2.7427   -5.8785 C.3       12 UNK         0.0194 
     72 H72        25.0596   -6.1061   -0.0430 H         1 UNK         0.0906 
     73 H73        23.6047   -5.4047   -0.7551 H         1 UNK         0.0906 
     74 H74        24.7477   -6.2874   -1.7704 H         1 UNK         0.0906 
     75 H75        26.5715   -4.5495    0.4025 H         1 UNK         0.3140 
     76 H76        27.9764   -2.9255    0.3397 H         1 UNK         0.1085 
     77 H77        28.1761   -3.6588   -2.2309 H         1 UNK         0.0836 
     78 H78        27.5092   -2.0935   -2.5513 H         1 UNK         0.0836 
     79 H79        31.7498   -3.1477   -1.2775 H         1 UNK         0.0731 
     80 H80        30.3906   -4.2335   -1.3160 H         1 UNK         0.0731 
     81 H81        32.8184   -2.3335   -3.3420 H         1 UNK         0.1312 
     82 H82        31.9528   -4.4735   -6.9567 H         1 UNK         0.1406 
     83 H83        29.4790   -5.0215   -3.5020 H         1 UNK         0.1631 
     84 H84        29.0926   -6.3869   -5.4013 H         1 UNK         0.0717 
     85 H85        30.4671   -6.6506   -6.4412 H         1 UNK         0.0717 
     86 H86        26.7126   -4.9295   -6.4931 H         1 UNK         0.0934 
     87 H87        27.8680   -3.9451   -5.6446 H         1 UNK         0.0934 
     88 H88        26.9735   -3.3794   -8.5209 H         1 UNK         0.0739 
     89 H89        25.0733   -2.5704   -7.8634 H         1 UNK         0.3093 
     90 H90        23.6370   -1.1320   -6.8512 H         1 UNK         0.0818 
     91 H91        21.9930   -2.1979   -5.2699 H         1 UNK         0.0819 
     92 H92        23.0198   -3.4236   -5.9961 H         1 UNK         0.0819 
     93 H93        23.3203   -2.8984   -4.3445 H         1 UNK         0.0819 
     94 H94        24.7518   -0.2861   -4.3139 H         1 UNK         0.3041 
     95 H95        24.1774    2.3109   -4.1297 H         1 UNK         0.0784 
     96 H96        21.9855    3.2710   -4.7720 H         1 UNK         0.0793 
     97 H97        21.1684    2.3008   -3.5537 H         1 UNK         0.0793 
     98 H98        22.3044    3.5613   -3.0715 H         1 UNK         0.0793 
     99 H99        22.6290    1.1158   -1.9446 H         1 UNK         0.3024 
    100 H100       25.0141    0.7064    0.0325 H         1 UNK         0.1171 
    101 H101       22.5448    0.5305   -0.0170 H         1 UNK         0.0786 
    102 H102       23.1937   -0.8852    0.7794 H         1 UNK         0.0786 
    103 H103       22.6267   -1.0081   -0.8808 H         1 UNK         0.0786 
    104 H104       25.0733   -1.9261   -1.4140 H         1 UNK         0.2977 
    105 H105       28.0673   -1.7472   -5.5414 H         1 UNK         0.3127 
    106 H106       30.4553   -0.6336   -6.5826 H         1 UNK         0.0770 
    107 H107       28.7103    0.0513   -4.1549 H         1 UNK         0.0814 
    108 H108       30.2610    0.8188   -4.4560 H         1 UNK         0.0814 
    109 H109       30.1847   -0.9154   -4.1977 H         1 UNK         0.0814 
    110 H110       27.1598    0.6397   -6.4697 H         1 UNK         0.2983 
    111 H111       27.7566    3.3254   -7.2680 H         1 UNK         0.0947 
    112 H112       25.1653    1.6902   -7.4854 H         1 UNK         0.0806 
    113 H113       25.2871    3.4331   -7.6818 H         1 UNK         0.0806 
    114 H114       25.6436    2.7068   -6.1249 H         1 UNK         0.0806 
    115 H115       27.4243    0.3437   -9.0998 H         1 UNK         0.3000 
    116 H116       27.2054    1.7626  -11.7036 H         1 UNK         0.0850 
    117 H117       26.9031   -0.5280  -12.6166 H         1 UNK         0.0810 
    118 H118       25.7294   -0.2047  -11.3512 H         1 UNK         0.0810 
    119 H119       27.1264   -1.2272  -11.0195 H         1 UNK         0.0810 
    120 H120       29.3357   -0.4803   -9.8826 H         1 UNK         0.3040 
    121 H121       31.4245   -0.5368  -11.8539 H         1 UNK         0.0766 
    122 H122       32.6422   -1.7664  -10.0141 H         1 UNK         0.0812 
    123 H123       31.0335   -2.4097  -10.3071 H         1 UNK         0.0812 
    124 H124       31.3264   -1.3793   -8.9118 H         1 UNK         0.0812 
    125 H125       30.6673    1.7737   -9.4165 H         1 UNK         0.3205 
    126 H126       31.5203    3.6714   -8.7111 H         1 UNK         0.0754 
    127 H127       33.2209    4.9199   -9.9740 H         1 UNK         0.0769 
    128 H128       32.0721    4.2044  -11.0933 H         1 UNK         0.0769 
    129 H129       33.6704    3.4891  -10.8869 H         1 UNK         0.0769 
    130 H130       31.9783    1.5596   -7.2168 H         1 UNK         0.2981 
    131 H131       34.7960    1.3385   -6.4400 H         1 UNK         0.0541 
    132 H132       32.3609    3.6497   -5.6043 H         1 UNK         0.3459 
    133 H133       33.1154    4.1740   -4.1194 H         1 UNK         0.3459 
    134 H134       32.3551    0.0650   -5.1212 H         1 UNK         0.0612 
    135 H135       34.0193   -0.2706   -4.7354 H         1 UNK         0.0612 
    136 H136       34.1918   -3.4844   -6.5502 H         1 UNK         0.0624 
    137 H137       34.5235   -2.5348   -5.1305 H         1 UNK         0.0624 
@<TRIPOS>BOND
     1    1    2 1    
     2    1   72 1    
     3    1   73 1    
     4    1   74 1    
     5    2    3 2    
     6    2    4 am   BACKBONE|DICT|INTERRES
     7    4    5 1    
     8    4   75 1    
     9    5    6 1    
    10    5   35 1    
    11    5   76 1    
    12    6    7 1    
    13    6   77 1    
    14    6   78 1    
    15    7    8 1    
    16    8    9 1    
    17    8   79 1    
    18    8   80 1    
    19    9   10 ar   
    20    9   14 ar   
    21   10   11 ar   
    22   10   81 1    
    23   11   12 ar   
    24   11   71 1    
    25   12   13 ar   
    26   12   82 1    
    27   13   14 ar   
    28   13   15 1    
    29   14   83 1    
    30   15   16 1    
    31   15   84 1    
    32   15   85 1    
    33   16   17 1    
    34   17   18 1    
    35   17   86 1    
    36   17   87 1    
    37   18   19 1    
    38   18   37 1    
    39   18   88 1    
    40   19   20 am   BACKBONE|DICT|INTERRES
    41   19   89 1    
    42   20   21 2    
    43   20   22 1    
    44   22   23 1    
    45   22   24 1    
    46   22   90 1    
    47   23   91 1    
    48   23   92 1    
    49   23   93 1    
    50   24   25 am   BACKBONE|DICT|INTERRES
    51   24   94 1    
    52   25   26 2    
    53   25   27 1    
    54   27   28 1    
    55   27   29 1    
    56   27   95 1    
    57   28   96 1    
    58   28   97 1    
    59   28   98 1    
    60   29   30 am   BACKBONE|DICT|INTERRES
    61   29   99 1    
    62   30   31 2    
    63   30   32 1    
    64   32   33 1    
    65   32   34 1    
    66   32  100 1    
    67   33  101 1    
    68   33  102 1    
    69   33  103 1    
    70   34   35 am   BACKBONE|DICT|INTERRES
    71   34  104 1    
    72   35   36 2    
    73   37   38 2    
    74   37   39 am   BACKBONE|DICT|INTERRES
    75   39   40 1    
    76   39  105 1    
    77   40   41 1    
    78   40   42 1    
    79   40  106 1    
    80   41  107 1    
    81   41  108 1    
    82   41  109 1    
    83   42   43 2    
    84   42   44 am   BACKBONE|DICT|INTERRES
    85   44   45 1    
    86   44  110 1    
    87   45   46 1    
    88   45   47 1    
    89   45  111 1    
    90   46  112 1    
    91   46  113 1    
    92   46  114 1    
    93   47   48 2    
    94   47   49 am   BACKBONE|DICT|INTERRES
    95   49   50 1    
    96   49  115 1    
    97   50   51 1    
    98   50   52 1    
    99   50  116 1    
   100   51  117 1    
   101   51  118 1    
   102   51  119 1    
   103   52   53 2    
   104   52   54 am   BACKBONE|DICT|INTERRES
   105   54   55 1    
   106   54  120 1    
   107   55   56 1    
   108   55   57 1    
   109   55  121 1    
   110   56  122 1    
   111   56  123 1    
   112   56  124 1    
   113   57   58 2    
   114   57   59 am   BACKBONE|DICT|INTERRES
   115   59   60 1    
   116   59  125 1    
   117   60   61 1    
   118   60   62 1    
   119   60  126 1    
   120   61  127 1    
   121   61  128 1    
   122   61  129 1    
   123   62   63 2    
   124   62   64 am   BACKBONE|DICT|INTERRES
   125   64   65 1    
   126   64  130 1    
   127   65   66 1    
   128   65   69 1    
   129   65  131 1    
   130   66   67 am   BACKBONE|DICT|INTERRES
   131   66   68 2    
   132   67  132 1    
   133   67  133 1    
   134   69   70 1    
   135   69  134 1    
   136   69  135 1    
   137   70   71 1    
   138   71  136 1    
   139   71  137 1    
@<TRIPOS>SUBSTRUCTURE
     1 UNK         1 GROUP             0       ****    0 ROOT    
