@<TRIPOS>MOLECULE
3R137
137   139    1
SMALL
USER_CHARGES


@<TRIPOS>ATOM
      1 CA         27.5716   -6.9871   -3.1241 C.3       0 UNK        -0.2020 
      2 C          27.2825   -5.5891   -2.6007 C.2       0 UNK         0.4855 
      3 O          27.1137   -4.6659   -3.3971 O.2       0 UNK        -0.5197 
      4 N          27.2191   -5.4289   -1.2707 N.am      1 UNK        -0.4892 
      5 CA         26.9693   -4.1659   -0.5580 C.3       1 UNK         0.0835 
      6 C6         28.1719   -3.1837   -0.6528 C.3       12 UNK        -0.0855 
      7 S7         29.7290   -3.8297    0.0595 S.3       12 UNK        -0.2931 
      8 C8         30.9441   -3.6213   -1.3017 C.3       12 UNK         0.0378 
      9 C9         31.0559   -2.2209   -1.9185 C.ar      12 UNK        -0.0802 
     10 C10        31.7233   -2.0755   -3.1392 C.ar      12 UNK        -0.0944 
     11 C11        31.7384   -0.8474   -3.8210 C.ar      12 UNK        -0.0787 
     12 C12        31.0762    0.2463   -3.2511 C.ar      12 UNK        -0.0862 
     13 C13        30.4285    0.1253   -2.0186 C.ar      12 UNK        -0.0733 
     14 C14        30.4702   -1.0921   -1.3389 C.ar      12 UNK        -0.0832 
     15 C15        29.6332    1.2769   -1.4209 C.3       12 UNK         0.0240 
     16 S16        27.8721    0.8191   -1.2497 S.3       12 UNK        -0.2522 
     17 C17        27.0673    1.7290   -2.6073 C.3       12 UNK        -0.0967 
     18 CA         27.5640    1.3840   -4.0340 C.3       5 UNK         0.0660 
     19 N          27.5661   -0.0501   -4.3482 N.am      5 UNK        -0.4015 
     20 C          28.1872   -0.5778   -5.4161 C.2       4 UNK         0.4946 
     21 O          28.8788    0.0805   -6.1908 O.2       4 UNK        -0.5353 
     22 CA         27.9705   -2.0721   -5.7131 C.3       4 UNK         0.0277 
     23 CB         29.0950   -2.9230   -5.1161 C.3       4 UNK        -0.1981 
     24 N          26.6791   -2.5722   -5.2455 N.am      4 UNK        -0.4209 
     25 C          25.5042   -2.2176   -5.7820 C.2       3 UNK         0.4942 
     26 O          25.3967   -1.4648   -6.7503 O.2       3 UNK        -0.5208 
     27 CA         24.2405   -2.7383   -5.0793 C.3       3 UNK         0.0250 
     28 CB         24.0133   -4.2282   -5.3811 C.3       3 UNK        -0.1990 
     29 N          24.2789   -2.5264   -3.6293 N.am      3 UNK        -0.4232 
     30 C          24.3561   -1.3320   -3.0275 C.2       2 UNK         0.4993 
     31 O          24.3917   -0.2639   -3.6386 O.2       2 UNK        -0.5286 
     32 CA         24.4721   -1.3167   -1.4942 C.3       2 UNK         0.0209 
     33 CB         23.1164   -1.5941   -0.8145 C.3       2 UNK        -0.1931 
     34 N          25.5482   -2.1829   -0.9889 N.am      2 UNK        -0.4546 
     35 C          25.6200   -3.5239   -0.9828 C.2       1 UNK         0.5154 
     36 O          24.6799   -4.2492   -1.3205 O.2       1 UNK        -0.5181 
     37 C          26.7530    2.1765   -5.0762 C.2       5 UNK         0.5014 
     38 O          27.2143    3.2259   -5.5237 O.2       5 UNK        -0.5248 
     39 N          25.5820    1.6499   -5.4684 N.am      6 UNK        -0.4434 
     40 CA         24.7358    2.1992   -6.5324 C.3       6 UNK         0.0363 
     41 CB         23.3842    1.4680   -6.5474 C.3       6 UNK        -0.1936 
     42 C          25.4055    2.1476   -7.9182 C.2       6 UNK         0.5081 
     43 O          25.2204    3.0701   -8.7122 O.2       6 UNK        -0.5248 
     44 N          26.1997    1.0969   -8.1706 N.am      7 UNK        -0.4718 
     45 CA         27.0555    0.9609   -9.3553 C.3       7 UNK         0.0273 
     46 CB         27.5093   -0.5007   -9.4796 C.3       7 UNK        -0.1935 
     47 C          28.2749    1.9065   -9.3457 C.2       7 UNK         0.5018 
     48 O          28.8707    2.1268  -10.4020 O.2       7 UNK        -0.5186 
     49 N          28.6233    2.4434   -8.1672 N.am      8 UNK        -0.4240 
     50 CA         29.6735    3.4266   -7.8966 C.3       8 UNK         0.0235 
     51 CB         29.2369    4.8178   -8.4097 C.3       8 UNK        -0.2000 
     52 C          31.0458    2.9601   -8.4118 C.2       8 UNK         0.4941 
     53 O          31.5648    1.9604   -7.9150 O.2       8 UNK        -0.5273 
     54 N          31.5975    3.6698   -9.4056 N.am      9 UNK        -0.4262 
     55 CA         32.8875    3.3858  -10.0375 C.3       9 UNK         0.0264 
     56 CB         33.2387    4.5302  -11.0023 C.3       9 UNK        -0.1955 
     57 C          32.9564    2.0300  -10.7641 C.2       9 UNK         0.5031 
     58 O          34.0573    1.4969  -10.9119 O.2       9 UNK        -0.5390 
     59 N          31.8072    1.4908  -11.2013 N.am      10 UNK        -0.4204 
     60 CA         31.7259    0.1631  -11.8153 C.3       10 UNK         0.0237 
     61 CB         30.4332    0.0418  -12.6378 C.3       10 UNK        -0.1985 
     62 C          31.8305   -0.9700  -10.7798 C.2       10 UNK         0.4970 
     63 O          32.3733   -2.0247  -11.1097 O.2       10 UNK        -0.4914 
     64 N          31.3246   -0.7318   -9.5592 N.am      11 UNK        -0.4285 
     65 CA         31.3761   -1.6466   -8.4056 C.3       11 UNK         0.1007 
     66 C          30.6976   -3.0386   -8.6306 C.2       11 UNK         0.5703 
     67 N          29.7417   -3.1578   -9.5449 N.am      11 UNK        -0.7361 
     68 O          31.0148   -4.0220   -7.9676 O.2       11 UNK        -0.4986 
     69 C69        32.8133   -1.7014   -7.8055 C.3       12 UNK        -0.0947 
     70 S70        32.8679   -2.2023   -6.0523 S.3       12 UNK        -0.2240 
     71 C71        32.4108   -0.6576   -5.1868 C.3       12 UNK         0.0194 
     72 H72        26.7445   -7.3319   -3.7440 H         1 UNK         0.0906 
     73 H73        28.4742   -6.9770   -3.7345 H         1 UNK         0.0906 
     74 H74        27.7151   -7.7049   -2.3166 H         1 UNK         0.0906 
     75 H75        27.3383   -6.2362   -0.6751 H         1 UNK         0.3140 
     76 H76        26.8401   -4.4302    0.4928 H         1 UNK         0.1085 
     77 H77        27.9633   -2.2676   -0.0991 H         1 UNK         0.0836 
     78 H78        28.3323   -2.8894   -1.6912 H         1 UNK         0.0836 
     79 H79        30.6820   -4.3314   -2.0880 H         1 UNK         0.0731 
     80 H80        31.9269   -3.9179   -0.9335 H         1 UNK         0.0731 
     81 H81        32.1955   -2.9464   -3.5698 H         1 UNK         0.1312 
     82 H82        31.0480    1.1880   -3.7822 H         1 UNK         0.1406 
     83 H83        29.9789   -1.1602   -0.3802 H         1 UNK         0.1631 
     84 H84        29.7367    2.1863   -2.0143 H         1 UNK         0.0717 
     85 H85        30.0341    1.5077   -0.4331 H         1 UNK         0.0717 
     86 H86        25.9942    1.5515   -2.5209 H         1 UNK         0.0934 
     87 H87        27.2025    2.7954   -2.4143 H         1 UNK         0.0934 
     88 H88        28.5965    1.7282   -4.1158 H         1 UNK         0.0739 
     89 H89        27.0042   -0.6469   -3.7617 H         1 UNK         0.3093 
     90 H90        28.0016   -2.1987   -6.7967 H         1 UNK         0.0818 
     91 H91        29.1135   -2.8586   -4.0287 H         1 UNK         0.0819 
     92 H92        28.9898   -3.9727   -5.3903 H         1 UNK         0.0819 
     93 H93        30.0635   -2.5917   -5.4849 H         1 UNK         0.0819 
     94 H94        26.7011   -3.2521   -4.4853 H         1 UNK         0.3041 
     95 H95        23.3907   -2.1765   -5.4726 H         1 UNK         0.0784 
     96 H96        23.9792   -4.4077   -6.4566 H         1 UNK         0.0793 
     97 H97        24.8086   -4.8518   -4.9705 H         1 UNK         0.0793 
     98 H98        23.0679   -4.5762   -4.9648 H         1 UNK         0.0793 
     99 H99        24.2996   -3.3503   -3.0347 H         1 UNK         0.3024 
    100 H100       24.7620   -0.3011   -1.2186 H         1 UNK         0.1171 
    101 H101       23.2010   -1.5471    0.2712 H         1 UNK         0.0786 
    102 H102       22.3768   -0.8504   -1.1140 H         1 UNK         0.0786 
    103 H103       22.7110   -2.5712   -1.0775 H         1 UNK         0.0786 
    104 H104       26.3731   -1.6795   -0.6928 H         1 UNK         0.2977 
    105 H105       25.2372    0.8161   -4.9977 H         1 UNK         0.3127 
    106 H106       24.5505    3.2494   -6.2969 H         1 UNK         0.0770 
    107 H107       23.4996    0.4073   -6.7712 H         1 UNK         0.0814 
    108 H108       22.7212    1.8905   -7.3034 H         1 UNK         0.0814 
    109 H109       22.8772    1.5523   -5.5860 H         1 UNK         0.0814 
    110 H110       26.2232    0.3396   -7.4957 H         1 UNK         0.2983 
    111 H111       26.4574    1.2102  -10.2345 H         1 UNK         0.0947 
    112 H112       28.0213   -0.6683  -10.4264 H         1 UNK         0.0806 
    113 H113       26.6631   -1.1874   -9.4443 H         1 UNK         0.0806 
    114 H114       28.1975   -0.7739   -8.6806 H         1 UNK         0.0806 
    115 H115       28.1087    2.1380   -7.3510 H         1 UNK         0.3000 
    116 H116       29.7633    3.4865   -6.8109 H         1 UNK         0.0850 
    117 H117       29.9800    5.5807   -8.1733 H         1 UNK         0.0810 
    118 H118       28.3055    5.1265   -7.9340 H         1 UNK         0.0810 
    119 H119       29.0697    4.8296   -9.4874 H         1 UNK         0.0810 
    120 H120       31.0822    4.4610   -9.7637 H         1 UNK         0.3040 
    121 H121       33.6397    3.3633   -9.2461 H         1 UNK         0.0766 
    122 H122       34.2113    4.3636  -11.4680 H         1 UNK         0.0812 
    123 H123       33.2916    5.4872  -10.4828 H         1 UNK         0.0812 
    124 H124       32.5054    4.6216  -11.8047 H         1 UNK         0.0812 
    125 H125       30.9320    1.9750  -11.0277 H         1 UNK         0.3205 
    126 H126       32.5651    0.0516  -12.5058 H         1 UNK         0.0754 
    127 H127       29.5435    0.1502  -12.0196 H         1 UNK         0.0769 
    128 H128       30.3730   -0.9310  -13.1277 H         1 UNK         0.0769 
    129 H129       30.3899    0.8004  -13.4195 H         1 UNK         0.0769 
    130 H130       30.9467    0.1847   -9.3623 H         1 UNK         0.2981 
    131 H131       30.7398   -1.1640   -7.6652 H         1 UNK         0.0541 
    132 H132       29.4828   -2.3769  -10.1228 H         1 UNK         0.3459 
    133 H133       29.3083   -4.0565   -9.6837 H         1 UNK         0.3459 
    134 H134       33.2888   -0.7213   -7.8759 H         1 UNK         0.0612 
    135 H135       33.4414   -2.3806   -8.3839 H         1 UNK         0.0612 
    136 H136       31.7375   -0.0846   -5.8263 H         1 UNK         0.0624 
    137 H137       33.3079   -0.0506   -5.0614 H         1 UNK         0.0624 
@<TRIPOS>BOND
     1    1    2 1    
     2    1   72 1    
     3    1   73 1    
     4    1   74 1    
     5    2    3 2    
     6    2    4 am   BACKBONE|DICT|INTERRES
     7    4    5 1    
     8    4   75 1    
     9    5    6 1    
    10    5   35 1    
    11    5   76 1    
    12    6    7 1    
    13    6   77 1    
    14    6   78 1    
    15    7    8 1    
    16    8    9 1    
    17    8   79 1    
    18    8   80 1    
    19    9   10 ar   
    20    9   14 ar   
    21   10   11 ar   
    22   10   81 1    
    23   11   12 ar   
    24   11   71 1    
    25   12   13 ar   
    26   12   82 1    
    27   13   14 ar   
    28   13   15 1    
    29   14   83 1    
    30   15   16 1    
    31   15   84 1    
    32   15   85 1    
    33   16   17 1    
    34   17   18 1    
    35   17   86 1    
    36   17   87 1    
    37   18   19 1    
    38   18   37 1    
    39   18   88 1    
    40   19   20 am   BACKBONE|DICT|INTERRES
    41   19   89 1    
    42   20   21 2    
    43   20   22 1    
    44   22   23 1    
    45   22   24 1    
    46   22   90 1    
    47   23   91 1    
    48   23   92 1    
    49   23   93 1    
    50   24   25 am   BACKBONE|DICT|INTERRES
    51   24   94 1    
    52   25   26 2    
    53   25   27 1    
    54   27   28 1    
    55   27   29 1    
    56   27   95 1    
    57   28   96 1    
    58   28   97 1    
    59   28   98 1    
    60   29   30 am   BACKBONE|DICT|INTERRES
    61   29   99 1    
    62   30   31 2    
    63   30   32 1    
    64   32   33 1    
    65   32   34 1    
    66   32  100 1    
    67   33  101 1    
    68   33  102 1    
    69   33  103 1    
    70   34   35 am   BACKBONE|DICT|INTERRES
    71   34  104 1    
    72   35   36 2    
    73   37   38 2    
    74   37   39 am   BACKBONE|DICT|INTERRES
    75   39   40 1    
    76   39  105 1    
    77   40   41 1    
    78   40   42 1    
    79   40  106 1    
    80   41  107 1    
    81   41  108 1    
    82   41  109 1    
    83   42   43 2    
    84   42   44 am   BACKBONE|DICT|INTERRES
    85   44   45 1    
    86   44  110 1    
    87   45   46 1    
    88   45   47 1    
    89   45  111 1    
    90   46  112 1    
    91   46  113 1    
    92   46  114 1    
    93   47   48 2    
    94   47   49 am   BACKBONE|DICT|INTERRES
    95   49   50 1    
    96   49  115 1    
    97   50   51 1    
    98   50   52 1    
    99   50  116 1    
   100   51  117 1    
   101   51  118 1    
   102   51  119 1    
   103   52   53 2    
   104   52   54 am   BACKBONE|DICT|INTERRES
   105   54   55 1    
   106   54  120 1    
   107   55   56 1    
   108   55   57 1    
   109   55  121 1    
   110   56  122 1    
   111   56  123 1    
   112   56  124 1    
   113   57   58 2    
   114   57   59 am   BACKBONE|DICT|INTERRES
   115   59   60 1    
   116   59  125 1    
   117   60   61 1    
   118   60   62 1    
   119   60  126 1    
   120   61  127 1    
   121   61  128 1    
   122   61  129 1    
   123   62   63 2    
   124   62   64 am   BACKBONE|DICT|INTERRES
   125   64   65 1    
   126   64  130 1    
   127   65   66 1    
   128   65   69 1    
   129   65  131 1    
   130   66   67 am   BACKBONE|DICT|INTERRES
   131   66   68 2    
   132   67  132 1    
   133   67  133 1    
   134   69   70 1    
   135   69  134 1    
   136   69  135 1    
   137   70   71 1    
   138   71  136 1    
   139   71  137 1    
@<TRIPOS>SUBSTRUCTURE
     1 UNK         1 GROUP             0       ****    0 ROOT    
