@<TRIPOS>MOLECULE
3R137
137   139    1
SMALL
USER_CHARGES


@<TRIPOS>ATOM
      1 CA         30.2900   -5.0258   -2.6112 C.3       0 UNK        -0.2020 
      2 C          29.4071   -4.9402   -1.3766 C.2       0 UNK         0.4855 
      3 O          29.2428   -5.9357   -0.6715 O.2       0 UNK        -0.5197 
      4 N          28.8434   -3.7561   -1.1029 N.am      1 UNK        -0.4892 
      5 CA         28.0138   -3.4796    0.0772 C.3       1 UNK         0.0835 
      6 C6         28.0421   -1.9768    0.4552 C.3       12 UNK        -0.0855 
      7 S7         27.0974   -0.8803   -0.6571 S.3       12 UNK        -0.2931 
      8 C8         28.3991   -0.0361   -1.6174 C.3       12 UNK         0.0378 
      9 C9         28.9824   -0.8517   -2.7716 C.ar      12 UNK        -0.0802 
     10 C10        30.3215   -0.6680   -3.1250 C.ar      12 UNK        -0.0944 
     11 C11        30.8671   -1.3318   -4.2267 C.ar      12 UNK        -0.0787 
     12 C12        30.0681   -2.2066   -4.9682 C.ar      12 UNK        -0.0862 
     13 C13        28.7292   -2.4174   -4.6263 C.ar      12 UNK        -0.0733 
     14 C14        28.1956   -1.7277   -3.5295 C.ar      12 UNK        -0.0832 
     15 C15        27.9138   -3.4343   -5.4280 C.3       12 UNK         0.0240 
     16 S16        26.1095   -3.1531   -5.4250 S.3       12 UNK        -0.2522 
     17 C17        25.8126   -2.3616   -7.0471 C.3       12 UNK        -0.0967 
     18 CA         25.8174   -0.8086   -7.0495 C.3       5 UNK         0.0660 
     19 N          25.0714   -0.2501   -5.9204 N.am      5 UNK        -0.4015 
     20 C          24.3295    0.8625   -5.9173 C.2       4 UNK         0.4946 
     21 O          24.2203    1.5996   -6.8985 O.2       4 UNK        -0.5353 
     22 CA         23.5878    1.2061   -4.6001 C.3       4 UNK         0.0277 
     23 CB         22.4833    2.2597   -4.8077 C.3       4 UNK        -0.1981 
     24 N          23.0066    0.0362   -3.9205 N.am      4 UNK        -0.4209 
     25 C          23.7060   -0.9057   -3.2735 C.2       3 UNK         0.4942 
     26 O          24.9314   -0.8583   -3.1643 O.2       3 UNK        -0.5208 
     27 CA         22.9457   -2.1260   -2.7330 C.3       3 UNK         0.0250 
     28 CB         22.0247   -2.7360   -3.8154 C.3       3 UNK        -0.1990 
     29 N          23.9368   -3.1103   -2.2945 N.am      3 UNK        -0.4232 
     30 C          23.7025   -4.2456   -1.6281 C.2       2 UNK         0.4993 
     31 O          22.5957   -4.5727   -1.1975 O.2       2 UNK        -0.5286 
     32 CA         24.8922   -5.1996   -1.4326 C.3       2 UNK         0.0209 
     33 CB         25.0346   -6.1273   -2.6511 C.3       2 UNK        -0.1931 
     34 N          26.1673   -4.5150   -1.2054 N.am      2 UNK        -0.4546 
     35 C          26.5801   -4.0588   -0.0138 C.2       1 UNK         0.5154 
     36 O          25.8873   -4.1072    1.0045 O.2       1 UNK        -0.5181 
     37 C          27.2390   -0.2288   -7.1865 C.2       5 UNK         0.5014 
     38 O          27.9289   -0.5823   -8.1438 O.2       5 UNK        -0.5248 
     39 N          27.6548    0.6685   -6.2793 N.am      6 UNK        -0.4434 
     40 CA         28.9698    1.3203   -6.2856 C.3       6 UNK         0.0363 
     41 CB         29.0901    2.2550   -5.0726 C.3       6 UNK        -0.1936 
     42 C          29.2783    2.0913   -7.5807 C.2       6 UNK         0.5081 
     43 O          30.4150    2.0599   -8.0523 O.2       6 UNK        -0.5248 
     44 N          28.2511    2.7340   -8.1535 N.am      7 UNK        -0.4718 
     45 CA         28.3277    3.4515   -9.4282 C.3       7 UNK         0.0273 
     46 CB         27.0845    4.3419   -9.5828 C.3       7 UNK        -0.1935 
     47 C          28.4760    2.5185  -10.6433 C.2       7 UNK         0.5018 
     48 O          29.0961    2.9160  -11.6295 O.2       7 UNK        -0.5186 
     49 N          27.9181    1.3024  -10.5527 N.am      8 UNK        -0.4240 
     50 CA         28.0410    0.2594  -11.5736 C.3       8 UNK         0.0235 
     51 CB         26.8769   -0.7378  -11.4466 C.3       8 UNK        -0.2000 
     52 C          29.3956   -0.4579  -11.4760 C.2       8 UNK         0.4941 
     53 O          30.0126   -0.7289  -12.5066 O.2       8 UNK        -0.5273 
     54 N          29.8431   -0.7261  -10.2406 N.am      9 UNK        -0.4262 
     55 CA         31.1593   -1.2867   -9.9269 C.3       9 UNK         0.0264 
     56 CB         31.1867   -1.7003   -8.4470 C.3       9 UNK        -0.1955 
     57 C          32.3194   -0.3230  -10.2362 C.2       9 UNK         0.5031 
     58 O          33.4169   -0.7889  -10.5453 O.2       9 UNK        -0.5390 
     59 N          32.0538    0.9889  -10.1369 N.am      10 UNK        -0.4204 
     60 CA         32.9802    2.1134  -10.3132 C.3       10 UNK         0.0237 
     61 CB         33.5157    2.1784  -11.7595 C.3       10 UNK        -0.1985 
     62 C          34.0926    2.1357   -9.2468 C.2       10 UNK         0.4970 
     63 O          35.2189    2.5436   -9.5367 O.2       10 UNK        -0.4914 
     64 N          33.7505    1.6968   -8.0296 N.am      11 UNK        -0.4285 
     65 CA         34.6434    1.6421   -6.8630 C.3       11 UNK         0.1007 
     66 C          34.8174    2.9966   -6.1150 C.2       11 UNK         0.5703 
     67 N          34.0595    4.0387   -6.4376 N.am      11 UNK        -0.7361 
     68 O          35.6712    3.1086   -5.2383 O.2       11 UNK        -0.4986 
     69 C69        34.2525    0.4815   -5.9094 C.3       12 UNK        -0.0947 
     70 S70        32.5202    0.5607   -5.3487 S.3       12 UNK        -0.2240 
     71 C71        32.3161   -1.0910   -4.6197 C.3       12 UNK         0.0194 
     72 H72        31.1532   -5.6611   -2.4146 H         1 UNK         0.0906 
     73 H73        29.7358   -5.4537   -3.4455 H         1 UNK         0.0906 
     74 H74        30.6617   -4.0452   -2.9048 H         1 UNK         0.0906 
     75 H75        28.9988   -2.9686   -1.7200 H         1 UNK         0.3140 
     76 H76        28.4762   -4.0091    0.9139 H         1 UNK         0.1085 
     77 H77        27.6315   -1.8491    1.4586 H         1 UNK         0.0836 
     78 H78        29.0741   -1.6294    0.5239 H         1 UNK         0.0836 
     79 H79        29.1870    0.2913   -0.9372 H         1 UNK         0.0731 
     80 H80        27.9646    0.8713   -2.0377 H         1 UNK         0.0731 
     81 H81        30.9387    0.0197   -2.5628 H         1 UNK         0.1312 
     82 H82        30.4941   -2.7342   -5.8097 H         1 UNK         0.1406 
     83 H83        27.1629   -1.8734   -3.2564 H         1 UNK         0.1631 
     84 H84        28.0972   -4.4213   -5.0031 H         1 UNK         0.0717 
     85 H85        28.2729   -3.4763   -6.4573 H         1 UNK         0.0717 
     86 H86        26.4953   -2.7698   -7.7951 H         1 UNK         0.0934 
     87 H87        24.8252   -2.6970   -7.3679 H         1 UNK         0.0934 
     88 H88        25.3068   -0.5014   -7.9649 H         1 UNK         0.0739 
     89 H89        25.1454   -0.7629   -5.0451 H         1 UNK         0.3093 
     90 H90        24.3345    1.6432   -3.9335 H         1 UNK         0.0818 
     91 H91        22.0063    2.5274   -3.8646 H         1 UNK         0.0819 
     92 H92        22.8905    3.1790   -5.2308 H         1 UNK         0.0819 
     93 H93        21.7090    1.9025   -5.4878 H         1 UNK         0.0819 
     94 H94        22.0072   -0.0798   -4.0070 H         1 UNK         0.3041 
     95 H95        22.3549   -1.8093   -1.8716 H         1 UNK         0.0784 
     96 H96        22.5893   -3.0223   -4.7042 H         1 UNK         0.0793 
     97 H97        21.5068   -3.6240   -3.4538 H         1 UNK         0.0793 
     98 H98        21.2505   -2.0354   -4.1284 H         1 UNK         0.0793 
     99 H99        24.8856   -2.8664   -2.5524 H         1 UNK         0.3024 
    100 H100       24.6695   -5.8215   -0.5619 H         1 UNK         0.1171 
    101 H101       24.1088   -6.6744   -2.8351 H         1 UNK         0.0786 
    102 H102       25.8210   -6.8666   -2.4969 H         1 UNK         0.0786 
    103 H103       25.2696   -5.5710   -3.5594 H         1 UNK         0.0786 
    104 H104       26.8045   -4.4465   -1.9849 H         1 UNK         0.2977 
    105 H105       27.0361    0.8964   -5.5161 H         1 UNK         0.3127 
    106 H106       29.7155    0.5308   -6.1899 H         1 UNK         0.0770 
    107 H107       28.3524    3.0576   -5.1026 H         1 UNK         0.0814 
    108 H108       30.0773    2.7181   -5.0373 H         1 UNK         0.0814 
    109 H109       28.9590    1.7126   -4.1381 H         1 UNK         0.0814 
    110 H110       27.3511    2.7044   -7.6956 H         1 UNK         0.2983 
    111 H111       29.2097    4.0958   -9.4023 H         1 UNK         0.0947 
    112 H112       27.1222    4.9057  -10.5161 H         1 UNK         0.0806 
    113 H113       27.0122    5.0668   -8.7718 H         1 UNK         0.0806 
    114 H114       26.1647    3.7555   -9.5930 H         1 UNK         0.0806 
    115 H115       27.4828    1.0355   -9.6806 H         1 UNK         0.3000 
    116 H116       27.9787    0.7252  -12.5598 H         1 UNK         0.0850 
    117 H117       26.9309   -1.4965  -12.2285 H         1 UNK         0.0810 
    118 H118       25.9138   -0.2374  -11.5478 H         1 UNK         0.0810 
    119 H119       26.8850   -1.2593  -10.4892 H         1 UNK         0.0810 
    120 H120       29.2241   -0.5436   -9.4522 H         1 UNK         0.3040 
    121 H121       31.2994   -2.1810  -10.5378 H         1 UNK         0.0766 
    122 H122       32.1480   -2.1409   -8.1791 H         1 UNK         0.0812 
    123 H123       30.4161   -2.4408   -8.2326 H         1 UNK         0.0812 
    124 H124       31.0229   -0.8476   -7.7873 H         1 UNK         0.0812 
    125 H125       31.1459    1.2474   -9.7635 H         1 UNK         0.3205 
    126 H126       32.3876    3.0138  -10.1444 H         1 UNK         0.0754 
    127 H127       34.0803    3.0965  -11.9264 H         1 UNK         0.0769 
    128 H128       32.7004    2.1643  -12.4831 H         1 UNK         0.0769 
    129 H129       34.1799    1.3437  -11.9853 H         1 UNK         0.0769 
    130 H130       32.7905    1.4276   -7.8601 H         1 UNK         0.2981 
    131 H131       35.6414    1.4028   -7.2350 H         1 UNK         0.0541 
    132 H132       34.1874    4.9119   -5.9513 H         1 UNK         0.3459 
    133 H133       33.3511    3.9531   -7.1480 H         1 UNK         0.3459 
    134 H134       34.9077    0.4499   -5.0370 H         1 UNK         0.0612 
    135 H135       34.3985   -0.4680   -6.4268 H         1 UNK         0.0612 
    136 H136       32.6499   -1.8455   -5.3337 H         1 UNK         0.0624 
    137 H137       32.9576   -1.1824   -3.7422 H         1 UNK         0.0624 
@<TRIPOS>BOND
     1    1    2 1    
     2    1   72 1    
     3    1   73 1    
     4    1   74 1    
     5    2    3 2    
     6    2    4 am   BACKBONE|DICT|INTERRES
     7    4    5 1    
     8    4   75 1    
     9    5    6 1    
    10    5   35 1    
    11    5   76 1    
    12    6    7 1    
    13    6   77 1    
    14    6   78 1    
    15    7    8 1    
    16    8    9 1    
    17    8   79 1    
    18    8   80 1    
    19    9   10 ar   
    20    9   14 ar   
    21   10   11 ar   
    22   10   81 1    
    23   11   12 ar   
    24   11   71 1    
    25   12   13 ar   
    26   12   82 1    
    27   13   14 ar   
    28   13   15 1    
    29   14   83 1    
    30   15   16 1    
    31   15   84 1    
    32   15   85 1    
    33   16   17 1    
    34   17   18 1    
    35   17   86 1    
    36   17   87 1    
    37   18   19 1    
    38   18   37 1    
    39   18   88 1    
    40   19   20 am   BACKBONE|DICT|INTERRES
    41   19   89 1    
    42   20   21 2    
    43   20   22 1    
    44   22   23 1    
    45   22   24 1    
    46   22   90 1    
    47   23   91 1    
    48   23   92 1    
    49   23   93 1    
    50   24   25 am   BACKBONE|DICT|INTERRES
    51   24   94 1    
    52   25   26 2    
    53   25   27 1    
    54   27   28 1    
    55   27   29 1    
    56   27   95 1    
    57   28   96 1    
    58   28   97 1    
    59   28   98 1    
    60   29   30 am   BACKBONE|DICT|INTERRES
    61   29   99 1    
    62   30   31 2    
    63   30   32 1    
    64   32   33 1    
    65   32   34 1    
    66   32  100 1    
    67   33  101 1    
    68   33  102 1    
    69   33  103 1    
    70   34   35 am   BACKBONE|DICT|INTERRES
    71   34  104 1    
    72   35   36 2    
    73   37   38 2    
    74   37   39 am   BACKBONE|DICT|INTERRES
    75   39   40 1    
    76   39  105 1    
    77   40   41 1    
    78   40   42 1    
    79   40  106 1    
    80   41  107 1    
    81   41  108 1    
    82   41  109 1    
    83   42   43 2    
    84   42   44 am   BACKBONE|DICT|INTERRES
    85   44   45 1    
    86   44  110 1    
    87   45   46 1    
    88   45   47 1    
    89   45  111 1    
    90   46  112 1    
    91   46  113 1    
    92   46  114 1    
    93   47   48 2    
    94   47   49 am   BACKBONE|DICT|INTERRES
    95   49   50 1    
    96   49  115 1    
    97   50   51 1    
    98   50   52 1    
    99   50  116 1    
   100   51  117 1    
   101   51  118 1    
   102   51  119 1    
   103   52   53 2    
   104   52   54 am   BACKBONE|DICT|INTERRES
   105   54   55 1    
   106   54  120 1    
   107   55   56 1    
   108   55   57 1    
   109   55  121 1    
   110   56  122 1    
   111   56  123 1    
   112   56  124 1    
   113   57   58 2    
   114   57   59 am   BACKBONE|DICT|INTERRES
   115   59   60 1    
   116   59  125 1    
   117   60   61 1    
   118   60   62 1    
   119   60  126 1    
   120   61  127 1    
   121   61  128 1    
   122   61  129 1    
   123   62   63 2    
   124   62   64 am   BACKBONE|DICT|INTERRES
   125   64   65 1    
   126   64  130 1    
   127   65   66 1    
   128   65   69 1    
   129   65  131 1    
   130   66   67 am   BACKBONE|DICT|INTERRES
   131   66   68 2    
   132   67  132 1    
   133   67  133 1    
   134   69   70 1    
   135   69  134 1    
   136   69  135 1    
   137   70   71 1    
   138   71  136 1    
   139   71  137 1    
@<TRIPOS>SUBSTRUCTURE
     1 UNK         1 GROUP             0       ****    0 ROOT    
