@<TRIPOS>MOLECULE
3R137
137   139    1
SMALL
USER_CHARGES


@<TRIPOS>ATOM
      1 CA         27.4292   -6.1821   -6.3756 C.3       0 UNK        -0.2020 
      2 C          27.1907   -5.5064   -5.0343 C.2       0 UNK         0.4855 
      3 O          26.0409   -5.2577   -4.6697 O.2       0 UNK        -0.5197 
      4 N          28.2695   -5.2070   -4.2979 N.am      1 UNK        -0.4892 
      5 CA         28.2353   -4.5605   -2.9814 C.3       1 UNK         0.0835 
      6 C6         29.6409   -4.5264   -2.3327 C.3       12 UNK        -0.0855 
      7 S7         29.5693   -4.1262   -0.5492 S.3       12 UNK        -0.2931 
      8 C8         31.2342   -3.4634   -0.2156 C.3       12 UNK         0.0378 
      9 C9         31.5891   -2.2718   -1.0963 C.ar      12 UNK        -0.0802 
     10 C10        32.6313   -2.3800   -2.0206 C.ar      12 UNK        -0.0944 
     11 C11        32.9679   -1.3045   -2.8505 C.ar      12 UNK        -0.0787 
     12 C12        32.2684   -0.1008   -2.7161 C.ar      12 UNK        -0.0862 
     13 C13        31.2289    0.0293   -1.7879 C.ar      12 UNK        -0.0733 
     14 C14        30.8920   -1.0646   -0.9830 C.ar      12 UNK        -0.0832 
     15 C15        30.4999    1.3600   -1.6137 C.3       12 UNK         0.0240 
     16 S16        29.9509    2.1130   -3.1830 S.3       12 UNK        -0.2522 
     17 C17        28.6144    0.9793   -3.6728 C.3       12 UNK        -0.0967 
     18 CA         28.2329    1.1343   -5.1656 C.3       5 UNK         0.0660 
     19 N          27.7144   -0.1136   -5.7248 N.am      5 UNK        -0.4015 
     20 C          27.4384   -0.3203   -7.0192 C.2       4 UNK         0.4946 
     21 O          27.6332    0.5128   -7.9055 O.2       4 UNK        -0.5353 
     22 CA         26.7896   -1.6651   -7.3801 C.3       4 UNK         0.0277 
     23 CB         27.8513   -2.7581   -7.5726 C.3       4 UNK        -0.1981 
     24 N          25.8057   -2.0852   -6.3783 N.am      4 UNK        -0.4209 
     25 C          24.6336   -1.4649   -6.1768 C.2       3 UNK         0.4942 
     26 O          24.2306   -0.5230   -6.8584 O.2       3 UNK        -0.5208 
     27 CA         23.7917   -1.9431   -4.9833 C.3       3 UNK         0.0250 
     28 CB         23.0377   -3.2379   -5.3256 C.3       3 UNK        -0.1990 
     29 N          24.5959   -2.1379   -3.7744 N.am      3 UNK        -0.4232 
     30 C          25.2110   -1.1467   -3.1117 C.2       2 UNK         0.4993 
     31 O          25.1379    0.0382   -3.4309 O.2       2 UNK        -0.5286 
     32 CA         26.0943   -1.5344   -1.9151 C.3       2 UNK         0.0209 
     33 CB         25.2744   -1.5281   -0.6157 C.3       2 UNK        -0.1931 
     34 N          26.7689   -2.8260   -2.0610 N.am      2 UNK        -0.4546 
     35 C          27.6057   -3.1529   -3.0556 C.2       1 UNK         0.5154 
     36 O          27.8768   -2.4037   -3.9974 O.2       1 UNK        -0.5181 
     37 C          27.2714    2.3169   -5.4155 C.2       5 UNK         0.5014 
     38 O          27.6992    3.3406   -5.9508 O.2       5 UNK        -0.5248 
     39 N          25.9811    2.1343   -5.0930 N.am      6 UNK        -0.4434 
     40 CA         24.9045    3.1005   -5.3399 C.3       6 UNK         0.0363 
     41 CB         23.6089    2.6067   -4.6774 C.3       6 UNK        -0.1936 
     42 C          24.6639    3.3899   -6.8322 C.2       6 UNK         0.5081 
     43 O          24.3324    4.5231   -7.1805 O.2       6 UNK        -0.5248 
     44 N          24.8645    2.3797   -7.6894 N.am      7 UNK        -0.4718 
     45 CA         24.8108    2.4961   -9.1504 C.3       7 UNK         0.0273 
     46 CB         24.5926    1.0982   -9.7539 C.3       7 UNK        -0.1935 
     47 C          26.0565    3.1641   -9.7690 C.2       7 UNK         0.5018 
     48 O          26.0743    3.3661  -10.9839 O.2       7 UNK        -0.5186 
     49 N          27.0710    3.4760   -8.9462 N.am      8 UNK        -0.4240 
     50 CA         28.3746    4.0487   -9.3028 C.3       8 UNK         0.0235 
     51 CB         28.2241    5.4446   -9.9455 C.3       8 UNK        -0.2000 
     52 C          29.2607    3.0956  -10.1298 C.2       8 UNK         0.4941 
     53 O          30.1563    3.5575  -10.8388 O.2       8 UNK        -0.5273 
     54 N          29.0283    1.7827   -9.9960 N.am      9 UNK        -0.4262 
     55 CA         29.8499    0.7171  -10.5746 C.3       9 UNK         0.0264 
     56 CB         28.9340   -0.4518  -10.9768 C.3       9 UNK        -0.1955 
     57 C          30.9518    0.2450   -9.6060 C.2       9 UNK         0.5031 
     58 O          31.7869   -0.5684  -10.0061 O.2       9 UNK        -0.5390 
     59 N          30.9371    0.7541   -8.3627 N.am      10 UNK        -0.4204 
     60 CA         31.8263    0.4200   -7.2468 C.3       10 UNK         0.0237 
     61 CB         33.2822    0.8516   -7.5423 C.3       10 UNK        -0.1985 
     62 C          31.6559   -1.0563   -6.8518 C.2       10 UNK         0.4970 
     63 O          30.5789   -1.4182   -6.3828 O.2       10 UNK        -0.4914 
     64 N          32.6929   -1.8746   -7.0454 N.am      11 UNK        -0.4285 
     65 CA         32.6862   -3.3121   -6.7473 C.3       11 UNK         0.1007 
     66 C          33.6120   -4.1393   -7.6841 C.2       11 UNK         0.5703 
     67 N          34.0166   -3.6154   -8.8367 N.am      11 UNK        -0.7361 
     68 O          33.9523   -5.2806   -7.3816 O.2       11 UNK        -0.4986 
     69 C69        32.8592   -3.5991   -5.2299 C.3       12 UNK        -0.0947 
     70 S70        34.4614   -3.0639   -4.5292 S.3       12 UNK        -0.2240 
     71 C71        34.0936   -1.3921   -3.8823 C.3       12 UNK         0.0194 
     72 H72        26.7103   -5.8256   -7.1127 H         1 UNK         0.0906 
     73 H73        28.4309   -5.9826   -6.7558 H         1 UNK         0.0906 
     74 H74        27.3057   -7.2602   -6.2781 H         1 UNK         0.0906 
     75 H75        29.1888   -5.4072   -4.6643 H         1 UNK         0.3140 
     76 H76        27.5915   -5.1852   -2.3578 H         1 UNK         0.1085 
     77 H77        30.1234   -5.5006   -2.4270 H         1 UNK         0.0836 
     78 H78        30.2815   -3.8193   -2.8620 H         1 UNK         0.0836 
     79 H79        31.9611   -4.2680   -0.3380 H         1 UNK         0.0731 
     80 H80        31.2896   -3.1609    0.8310 H         1 UNK         0.0731 
     81 H81        33.1741   -3.3115   -2.0970 H         1 UNK         0.1312 
     82 H82        32.5362    0.7444   -3.3354 H         1 UNK         0.1406 
     83 H83        30.0923   -0.9800   -0.2595 H         1 UNK         0.1631 
     84 H84        31.1733    2.0569   -1.1131 H         1 UNK         0.0717 
     85 H85        29.6340    1.2471   -0.9593 H         1 UNK         0.0717 
     86 H86        28.9733   -0.0345   -3.4876 H         1 UNK         0.0934 
     87 H87        27.7549    1.1224   -3.0159 H         1 UNK         0.0934 
     88 H88        29.1456    1.3416   -5.7272 H         1 UNK         0.0739 
     89 H89        27.6144   -0.8964   -5.0824 H         1 UNK         0.3093 
     90 H90        26.2701   -1.5318   -8.3311 H         1 UNK         0.0818 
     91 H91        27.4131   -3.6640   -7.9890 H         1 UNK         0.0819 
     92 H92        28.6310   -2.4314   -8.2617 H         1 UNK         0.0819 
     93 H93        28.3427   -3.0153   -6.6337 H         1 UNK         0.0819 
     94 H94        26.0805   -2.8206   -5.7409 H         1 UNK         0.3041 
     95 H95        23.0528   -1.1673   -4.7702 H         1 UNK         0.0784 
     96 H96        22.4164   -3.1031   -6.2122 H         1 UNK         0.0793 
     97 H97        23.7193   -4.0647   -5.5284 H         1 UNK         0.0793 
     98 H98        22.3780   -3.5393   -4.5119 H         1 UNK         0.0793 
     99 H99        24.7378   -3.0891   -3.4637 H         1 UNK         0.3024 
    100 H100       26.8721   -0.7738   -1.8282 H         1 UNK         0.1171 
    101 H101       25.9084   -1.6967    0.2551 H         1 UNK         0.0786 
    102 H102       24.7795   -0.5663   -0.4716 H         1 UNK         0.0786 
    103 H103       24.4994   -2.2957   -0.6222 H         1 UNK         0.0786 
    104 H104       26.6182   -3.4958   -1.3199 H         1 UNK         0.2977 
    105 H105       25.7078    1.2741   -4.6174 H         1 UNK         0.3127 
    106 H106       25.1932    4.0414   -4.8668 H         1 UNK         0.0770 
    107 H107       23.7333    2.4914   -3.6006 H         1 UNK         0.0814 
    108 H108       23.2931    1.6440   -5.0822 H         1 UNK         0.0814 
    109 H109       22.7930    3.3131   -4.8359 H         1 UNK         0.0814 
    110 H110       25.0799    1.4615   -7.3169 H         1 UNK         0.2983 
    111 H111       23.9522    3.1171   -9.4147 H         1 UNK         0.0947 
    112 H112       25.4328    0.4356   -9.5469 H         1 UNK         0.0806 
    113 H113       24.4791    1.1505  -10.8375 H         1 UNK         0.0806 
    114 H114       23.6910    0.6305   -9.3579 H         1 UNK         0.0806 
    115 H115       26.9620    3.2498   -7.9634 H         1 UNK         0.3000 
    116 H116       28.8994    4.1864   -8.3563 H         1 UNK         0.0850 
    117 H117       27.5943    6.0949   -9.3384 H         1 UNK         0.0810 
    118 H118       27.7879    5.3887  -10.9431 H         1 UNK         0.0810 
    119 H119       29.1930    5.9353  -10.0447 H         1 UNK         0.0810 
    120 H120       28.2997    1.4758   -9.3522 H         1 UNK         0.3040 
    121 H121       30.3459    1.0830  -11.4760 H         1 UNK         0.0766 
    122 H122       29.5065   -1.2591  -11.4353 H         1 UNK         0.0812 
    123 H123       28.1845   -0.1341  -11.7018 H         1 UNK         0.0812 
    124 H124       28.4100   -0.8702  -10.1179 H         1 UNK         0.0812 
    125 H125       30.1620    1.3595   -8.1347 H         1 UNK         0.3205 
    126 H126       31.4835    1.0017   -6.3899 H         1 UNK         0.0754 
    127 H127       33.9316    0.6668   -6.6862 H         1 UNK         0.0769 
    128 H128       33.3329    1.9203   -7.7512 H         1 UNK         0.0769 
    129 H129       33.7090    0.3332   -8.4011 H         1 UNK         0.0769 
    130 H130       33.5484   -1.5099   -7.4371 H         1 UNK         0.2981 
    131 H131       31.6934   -3.6808   -7.0124 H         1 UNK         0.0541 
    132 H132       34.6115   -4.1638   -9.4378 H         1 UNK         0.3459 
    133 H133       33.6735   -2.7218   -9.1532 H         1 UNK         0.3459 
    134 H134       32.0447   -3.1302   -4.6778 H         1 UNK         0.0612 
    135 H135       32.7519   -4.6675   -5.0364 H         1 UNK         0.0612 
    136 H136       33.8681   -0.7434   -4.7279 H         1 UNK         0.0624 
    137 H137       35.0030   -0.9965   -3.4289 H         1 UNK         0.0624 
@<TRIPOS>BOND
     1    1    2 1    
     2    1   72 1    
     3    1   73 1    
     4    1   74 1    
     5    2    3 2    
     6    2    4 am   BACKBONE|DICT|INTERRES
     7    4    5 1    
     8    4   75 1    
     9    5    6 1    
    10    5   35 1    
    11    5   76 1    
    12    6    7 1    
    13    6   77 1    
    14    6   78 1    
    15    7    8 1    
    16    8    9 1    
    17    8   79 1    
    18    8   80 1    
    19    9   10 ar   
    20    9   14 ar   
    21   10   11 ar   
    22   10   81 1    
    23   11   12 ar   
    24   11   71 1    
    25   12   13 ar   
    26   12   82 1    
    27   13   14 ar   
    28   13   15 1    
    29   14   83 1    
    30   15   16 1    
    31   15   84 1    
    32   15   85 1    
    33   16   17 1    
    34   17   18 1    
    35   17   86 1    
    36   17   87 1    
    37   18   19 1    
    38   18   37 1    
    39   18   88 1    
    40   19   20 am   BACKBONE|DICT|INTERRES
    41   19   89 1    
    42   20   21 2    
    43   20   22 1    
    44   22   23 1    
    45   22   24 1    
    46   22   90 1    
    47   23   91 1    
    48   23   92 1    
    49   23   93 1    
    50   24   25 am   BACKBONE|DICT|INTERRES
    51   24   94 1    
    52   25   26 2    
    53   25   27 1    
    54   27   28 1    
    55   27   29 1    
    56   27   95 1    
    57   28   96 1    
    58   28   97 1    
    59   28   98 1    
    60   29   30 am   BACKBONE|DICT|INTERRES
    61   29   99 1    
    62   30   31 2    
    63   30   32 1    
    64   32   33 1    
    65   32   34 1    
    66   32  100 1    
    67   33  101 1    
    68   33  102 1    
    69   33  103 1    
    70   34   35 am   BACKBONE|DICT|INTERRES
    71   34  104 1    
    72   35   36 2    
    73   37   38 2    
    74   37   39 am   BACKBONE|DICT|INTERRES
    75   39   40 1    
    76   39  105 1    
    77   40   41 1    
    78   40   42 1    
    79   40  106 1    
    80   41  107 1    
    81   41  108 1    
    82   41  109 1    
    83   42   43 2    
    84   42   44 am   BACKBONE|DICT|INTERRES
    85   44   45 1    
    86   44  110 1    
    87   45   46 1    
    88   45   47 1    
    89   45  111 1    
    90   46  112 1    
    91   46  113 1    
    92   46  114 1    
    93   47   48 2    
    94   47   49 am   BACKBONE|DICT|INTERRES
    95   49   50 1    
    96   49  115 1    
    97   50   51 1    
    98   50   52 1    
    99   50  116 1    
   100   51  117 1    
   101   51  118 1    
   102   51  119 1    
   103   52   53 2    
   104   52   54 am   BACKBONE|DICT|INTERRES
   105   54   55 1    
   106   54  120 1    
   107   55   56 1    
   108   55   57 1    
   109   55  121 1    
   110   56  122 1    
   111   56  123 1    
   112   56  124 1    
   113   57   58 2    
   114   57   59 am   BACKBONE|DICT|INTERRES
   115   59   60 1    
   116   59  125 1    
   117   60   61 1    
   118   60   62 1    
   119   60  126 1    
   120   61  127 1    
   121   61  128 1    
   122   61  129 1    
   123   62   63 2    
   124   62   64 am   BACKBONE|DICT|INTERRES
   125   64   65 1    
   126   64  130 1    
   127   65   66 1    
   128   65   69 1    
   129   65  131 1    
   130   66   67 am   BACKBONE|DICT|INTERRES
   131   66   68 2    
   132   67  132 1    
   133   67  133 1    
   134   69   70 1    
   135   69  134 1    
   136   69  135 1    
   137   70   71 1    
   138   71  136 1    
   139   71  137 1    
@<TRIPOS>SUBSTRUCTURE
     1 UNK         1 GROUP             0       ****    0 ROOT    
