@<TRIPOS>MOLECULE
3R137
137   139    1
SMALL
USER_CHARGES


@<TRIPOS>ATOM
      1 CA         25.4143   -6.6345   -3.2933 C.3       0 UNK        -0.2020 
      2 C          25.7407   -5.1731   -3.0318 C.2       0 UNK         0.4855 
      3 O          25.4759   -4.3312   -3.8893 O.2       0 UNK        -0.5197 
      4 N          26.2922   -4.8683   -1.8479 N.am      1 UNK        -0.4892 
      5 CA         26.7640   -3.5504   -1.3885 C.3       1 UNK         0.0835 
      6 C6         28.1228   -3.1332   -2.0008 C.3       12 UNK        -0.0855 
      7 S7         29.4831   -4.3219   -1.7532 S.3       12 UNK        -0.2931 
      8 C8         30.5480   -3.9700   -3.2049 C.3       12 UNK         0.0378 
      9 C9         30.9289   -2.4996   -3.4184 C.ar      12 UNK        -0.0802 
     10 C10        31.2767   -2.0693   -4.7045 C.ar      12 UNK        -0.0944 
     11 C11        31.6099   -0.7323   -4.9470 C.ar      12 UNK        -0.0787 
     12 C12        31.5723    0.1876   -3.8971 C.ar      12 UNK        -0.0862 
     13 C13        31.2038   -0.2186   -2.6135 C.ar      12 UNK        -0.0733 
     14 C14        30.9341   -1.5678   -2.3721 C.ar      12 UNK        -0.0832 
     15 C15        31.0476    0.8034   -1.4948 C.3       12 UNK         0.0240 
     16 S16        29.7244    2.0207   -1.8334 S.3       12 UNK        -0.2522 
     17 C17        28.3075    0.9821   -2.3478 C.3       12 UNK        -0.0967 
     18 CA         28.0898    1.0161   -3.8847 C.3       5 UNK         0.0660 
     19 N          27.5239   -0.2315   -4.4154 N.am      5 UNK        -0.4015 
     20 C          27.6789   -0.6108   -5.6948 C.2       4 UNK         0.4946 
     21 O          28.3539    0.0141   -6.5148 O.2       4 UNK        -0.5353 
     22 CA         26.9381   -1.8636   -6.1856 C.3       4 UNK         0.0277 
     23 CB         27.8202   -3.1212   -6.1126 C.3       4 UNK        -0.1981 
     24 N          25.6464   -2.1104   -5.5434 N.am      4 UNK        -0.4209 
     25 C          24.5661   -1.3340   -5.7047 C.2       3 UNK         0.4942 
     26 O          24.5911   -0.2444   -6.2740 O.2       3 UNK        -0.5208 
     27 CA         23.2386   -1.8581   -5.1456 C.3       3 UNK         0.0250 
     28 CB         22.7717   -3.1068   -5.9132 C.3       3 UNK        -0.1990 
     29 N          23.3710   -2.1742   -3.7270 N.am      3 UNK        -0.4232 
     30 C          22.9900   -1.3634   -2.7307 C.2       2 UNK         0.4993 
     31 O          22.4073   -0.2922   -2.9013 O.2       2 UNK        -0.5286 
     32 CA         23.3167   -1.8095   -1.2924 C.3       2 UNK         0.0209 
     33 CB         22.0869   -2.4634   -0.6414 C.3       2 UNK        -0.1931 
     34 N          24.4602   -2.7227   -1.1836 N.am      2 UNK        -0.4546 
     35 C          25.7135   -2.4272   -1.5558 C.2       1 UNK         0.5154 
     36 O          26.0347   -1.3462   -2.0590 O.2       1 UNK        -0.5181 
     37 C          27.2645    2.2417   -4.3244 C.2       5 UNK         0.5014 
     38 O          27.8437    3.2945   -4.5938 O.2       5 UNK        -0.5248 
     39 N          25.9352    2.0832   -4.4191 N.am      6 UNK        -0.4434 
     40 CA         25.0114    3.1201   -4.8857 C.3       6 UNK         0.0363 
     41 CB         23.5663    2.7181   -4.5485 C.3       6 UNK        -0.1936 
     42 C          25.1689    3.4031   -6.3887 C.2       6 UNK         0.5081 
     43 O          25.1896    4.5668   -6.7902 O.2       6 UNK        -0.5248 
     44 N          25.2996    2.3355   -7.1870 N.am      7 UNK        -0.4718 
     45 CA         25.5438    2.3974   -8.6293 C.3       7 UNK         0.0273 
     46 CB         25.1979    1.0336   -9.2501 C.3       7 UNK        -0.1935 
     47 C          26.9884    2.7857   -8.9901 C.2       7 UNK         0.5018 
     48 O          27.2112    3.2514  -10.1081 O.2       7 UNK        -0.5186 
     49 N          27.9310    2.5596   -8.0601 N.am      8 UNK        -0.4240 
     50 CA         29.3877    2.6542   -8.2177 C.3       8 UNK         0.0235 
     51 CB         29.8340    4.1106   -8.4644 C.3       8 UNK        -0.2000 
     52 C          29.8794    1.6709   -9.2956 C.2       8 UNK         0.4941 
     53 O          30.4752    2.0810  -10.2948 O.2       8 UNK        -0.5273 
     54 N          29.5599    0.3856   -9.0918 N.am      9 UNK        -0.4262 
     55 CA         29.7211   -0.7144  -10.0488 C.3       9 UNK         0.0264 
     56 CB         28.8396   -1.8917   -9.5955 C.3       9 UNK        -0.1955 
     57 C          31.1867   -1.1341  -10.2891 C.2       9 UNK         0.5031 
     58 O          31.5506   -2.2837  -10.0293 O.2       9 UNK        -0.5390 
     59 N          31.9923   -0.1938  -10.7984 N.am      10 UNK        -0.4204 
     60 CA         33.4059   -0.2849  -11.1840 C.3       10 UNK         0.0237 
     61 CB         33.6262   -1.3108  -12.3151 C.3       10 UNK        -0.1985 
     62 C          34.3554   -0.5213   -9.9982 C.2       10 UNK         0.4970 
     63 O          35.1602    0.3629   -9.7036 O.2       10 UNK        -0.4914 
     64 N          34.2240   -1.6901   -9.3546 N.am      11 UNK        -0.4285 
     65 CA         34.9664   -2.1825   -8.1807 C.3       11 UNK         0.1007 
     66 C          36.4983   -1.8886   -8.1867 C.2       11 UNK         0.5703 
     67 N          37.0800   -1.4125   -7.0933 N.am      11 UNK        -0.7361 
     68 O          37.1792   -2.1570   -9.1752 O.2       11 UNK        -0.4986 
     69 C69        34.2175   -1.9200   -6.8396 C.3       12 UNK        -0.0947 
     70 S70        33.8002   -0.1704   -6.5226 S.3       12 UNK        -0.2240 
     71 C71        31.9925   -0.2622   -6.3413 C.3       12 UNK         0.0194 
     72 H72        25.6891   -7.2723   -2.4535 H         1 UNK         0.0906 
     73 H73        24.3466   -6.7525   -3.4759 H         1 UNK         0.0906 
     74 H74        25.9512   -6.9835   -4.1748 H         1 UNK         0.0906 
     75 H75        26.4661   -5.6211   -1.1959 H         1 UNK         0.3140 
     76 H76        26.9138   -3.6448   -0.3116 H         1 UNK         0.1085 
     77 H77        28.4389   -2.2026   -1.5338 H         1 UNK         0.0836 
     78 H78        28.0160   -2.9196   -3.0619 H         1 UNK         0.0836 
     79 H79        31.4644   -4.5536   -3.1102 H         1 UNK         0.0731 
     80 H80        30.0361   -4.3454   -4.0923 H         1 UNK         0.0731 
     81 H81        31.2869   -2.7775   -5.5214 H         1 UNK         0.1312 
     82 H82        31.7983    1.2284   -4.0851 H         1 UNK         0.1406 
     83 H83        30.6874   -1.8803   -1.3677 H         1 UNK         0.1631 
     84 H84        31.9909    1.3334   -1.3571 H         1 UNK         0.0717 
     85 H85        30.8313    0.3102   -0.5459 H         1 UNK         0.0717 
     86 H86        28.4977   -0.0351   -2.0141 H         1 UNK         0.0934 
     87 H87        27.4120    1.2951   -1.8069 H         1 UNK         0.0934 
     88 H88        29.0691    1.1321   -4.3518 H         1 UNK         0.0739 
     89 H89        26.9468   -0.7787   -3.7842 H         1 UNK         0.3093 
     90 H90        26.7316   -1.6849   -7.2428 H         1 UNK         0.0818 
     91 H91        27.8444   -3.5552   -5.1168 H         1 UNK         0.0819 
     92 H92        27.4517   -3.8916   -6.7899 H         1 UNK         0.0819 
     93 H93        28.8501   -2.9062   -6.3984 H         1 UNK         0.0819 
     94 H94        25.5573   -2.9775   -5.0129 H         1 UNK         0.3041 
     95 H95        22.4865   -1.0795   -5.2918 H         1 UNK         0.0784 
     96 H96        22.6864   -2.8987   -6.9807 H         1 UNK         0.0793 
     97 H97        23.4618   -3.9434   -5.7973 H         1 UNK         0.0793 
     98 H98        21.7912   -3.4355   -5.5686 H         1 UNK         0.0793 
     99 H99        23.8977   -3.0100   -3.4991 H         1 UNK         0.3024 
    100 H100       23.5643   -0.9056   -0.7310 H         1 UNK         0.1171 
    101 H101       21.2234   -1.7976   -0.6813 H         1 UNK         0.0786 
    102 H102       22.2671   -2.6926    0.4090 H         1 UNK         0.0786 
    103 H103       21.8078   -3.3893   -1.1460 H         1 UNK         0.0786 
    104 H104       24.2767   -3.6437   -0.8114 H         1 UNK         0.2977 
    105 H105       25.5362    1.1778   -4.2172 H         1 UNK         0.3127 
    106 H106       25.2394    4.0431   -4.3480 H         1 UNK         0.0770 
    107 H107       23.2740    1.7906   -5.0422 H         1 UNK         0.0814 
    108 H108       22.8639    3.4901   -4.8653 H         1 UNK         0.0814 
    109 H109       23.4321    2.5792   -3.4755 H         1 UNK         0.0814 
    110 H110       25.1862    1.4059   -6.7841 H         1 UNK         0.2983 
    111 H111       24.8817    3.1514   -9.0608 H         1 UNK         0.0947 
    112 H112       25.3322    1.0497  -10.3326 H         1 UNK         0.0806 
    113 H113       24.1606    0.7605   -9.0554 H         1 UNK         0.0806 
    114 H114       25.8322    0.2395   -8.8537 H         1 UNK         0.0806 
    115 H115       27.6244    2.1340   -7.1952 H         1 UNK         0.3000 
    116 H116       29.8230    2.3314   -7.2708 H         1 UNK         0.0850 
    117 H117       29.4803    4.7708   -7.6724 H         1 UNK         0.0810 
    118 H118       29.4641    4.4977   -9.4142 H         1 UNK         0.0810 
    119 H119       30.9219    4.1832   -8.4875 H         1 UNK         0.0810 
    120 H120       29.0978    0.1565   -8.2126 H         1 UNK         0.3040 
    121 H121       29.3340   -0.3725  -11.0110 H         1 UNK         0.0766 
    122 H122       27.7948   -1.5952   -9.5039 H         1 UNK         0.0812 
    123 H123       29.1670   -2.2850   -8.6338 H         1 UNK         0.0812 
    124 H124       28.8803   -2.7116  -10.3138 H         1 UNK         0.0812 
    125 H125       31.5806    0.7367  -10.8711 H         1 UNK         0.3205 
    126 H126       33.6573    0.6960  -11.5911 H         1 UNK         0.0754 
    127 H127       34.6712   -1.3251  -12.6276 H         1 UNK         0.0769 
    128 H128       33.0299   -1.0622  -13.1930 H         1 UNK         0.0769 
    129 H129       33.3655   -2.3255  -12.0133 H         1 UNK         0.0769 
    130 H130       33.4570   -2.2797   -9.6632 H         1 UNK         0.2981 
    131 H131       34.9404   -3.2656   -8.3053 H         1 UNK         0.0541 
    132 H132       38.0738   -1.2456   -7.0951 H         1 UNK         0.3459 
    133 H133       36.5276   -1.1745   -6.2844 H         1 UNK         0.3459 
    134 H134       34.7808   -2.3064   -5.9890 H         1 UNK         0.0612 
    135 H135       33.2962   -2.5025   -6.8475 H         1 UNK         0.0612 
    136 H136       31.5665   -0.9126   -7.1069 H         1 UNK         0.0624 
    137 H137       31.5723    0.7282   -6.5190 H         1 UNK         0.0624 
@<TRIPOS>BOND
     1    1    2 1    
     2    1   72 1    
     3    1   73 1    
     4    1   74 1    
     5    2    3 2    
     6    2    4 am   BACKBONE|DICT|INTERRES
     7    4    5 1    
     8    4   75 1    
     9    5    6 1    
    10    5   35 1    
    11    5   76 1    
    12    6    7 1    
    13    6   77 1    
    14    6   78 1    
    15    7    8 1    
    16    8    9 1    
    17    8   79 1    
    18    8   80 1    
    19    9   10 ar   
    20    9   14 ar   
    21   10   11 ar   
    22   10   81 1    
    23   11   12 ar   
    24   11   71 1    
    25   12   13 ar   
    26   12   82 1    
    27   13   14 ar   
    28   13   15 1    
    29   14   83 1    
    30   15   16 1    
    31   15   84 1    
    32   15   85 1    
    33   16   17 1    
    34   17   18 1    
    35   17   86 1    
    36   17   87 1    
    37   18   19 1    
    38   18   37 1    
    39   18   88 1    
    40   19   20 am   BACKBONE|DICT|INTERRES
    41   19   89 1    
    42   20   21 2    
    43   20   22 1    
    44   22   23 1    
    45   22   24 1    
    46   22   90 1    
    47   23   91 1    
    48   23   92 1    
    49   23   93 1    
    50   24   25 am   BACKBONE|DICT|INTERRES
    51   24   94 1    
    52   25   26 2    
    53   25   27 1    
    54   27   28 1    
    55   27   29 1    
    56   27   95 1    
    57   28   96 1    
    58   28   97 1    
    59   28   98 1    
    60   29   30 am   BACKBONE|DICT|INTERRES
    61   29   99 1    
    62   30   31 2    
    63   30   32 1    
    64   32   33 1    
    65   32   34 1    
    66   32  100 1    
    67   33  101 1    
    68   33  102 1    
    69   33  103 1    
    70   34   35 am   BACKBONE|DICT|INTERRES
    71   34  104 1    
    72   35   36 2    
    73   37   38 2    
    74   37   39 am   BACKBONE|DICT|INTERRES
    75   39   40 1    
    76   39  105 1    
    77   40   41 1    
    78   40   42 1    
    79   40  106 1    
    80   41  107 1    
    81   41  108 1    
    82   41  109 1    
    83   42   43 2    
    84   42   44 am   BACKBONE|DICT|INTERRES
    85   44   45 1    
    86   44  110 1    
    87   45   46 1    
    88   45   47 1    
    89   45  111 1    
    90   46  112 1    
    91   46  113 1    
    92   46  114 1    
    93   47   48 2    
    94   47   49 am   BACKBONE|DICT|INTERRES
    95   49   50 1    
    96   49  115 1    
    97   50   51 1    
    98   50   52 1    
    99   50  116 1    
   100   51  117 1    
   101   51  118 1    
   102   51  119 1    
   103   52   53 2    
   104   52   54 am   BACKBONE|DICT|INTERRES
   105   54   55 1    
   106   54  120 1    
   107   55   56 1    
   108   55   57 1    
   109   55  121 1    
   110   56  122 1    
   111   56  123 1    
   112   56  124 1    
   113   57   58 2    
   114   57   59 am   BACKBONE|DICT|INTERRES
   115   59   60 1    
   116   59  125 1    
   117   60   61 1    
   118   60   62 1    
   119   60  126 1    
   120   61  127 1    
   121   61  128 1    
   122   61  129 1    
   123   62   63 2    
   124   62   64 am   BACKBONE|DICT|INTERRES
   125   64   65 1    
   126   64  130 1    
   127   65   66 1    
   128   65   69 1    
   129   65  131 1    
   130   66   67 am   BACKBONE|DICT|INTERRES
   131   66   68 2    
   132   67  132 1    
   133   67  133 1    
   134   69   70 1    
   135   69  134 1    
   136   69  135 1    
   137   70   71 1    
   138   71  136 1    
   139   71  137 1    
@<TRIPOS>SUBSTRUCTURE
     1 UNK         1 GROUP             0       ****    0 ROOT    
