@<TRIPOS>MOLECULE
3R137
137   139    1
SMALL
USER_CHARGES


@<TRIPOS>ATOM
      1 CA         28.1792   -3.7294    3.2041 C.3       0 UNK        -0.2020 
      2 C          28.4342   -2.6510    2.1615 C.2       0 UNK         0.4855 
      3 O          28.4303   -1.4650    2.4940 O.2       0 UNK        -0.5197 
      4 N          28.6656   -3.0534    0.9060 N.am      1 UNK        -0.4892 
      5 CA         28.8795   -2.1553   -0.2356 C.3       1 UNK         0.0835 
      6 C6         29.5152   -2.8943   -1.4389 C.3       12 UNK        -0.0855 
      7 S7         31.1520   -3.5851   -1.0153 S.3       12 UNK        -0.2931 
      8 C8         31.1460   -5.1593   -1.9322 C.3       12 UNK         0.0378 
      9 C9         31.1774   -4.9271   -3.4354 C.ar      12 UNK        -0.0802 
     10 C10        32.3234   -4.3977   -4.0352 C.ar      12 UNK        -0.0944 
     11 C11        32.3522   -4.1400   -5.4081 C.ar      12 UNK        -0.0787 
     12 C12        31.2313   -4.4389   -6.1875 C.ar      12 UNK        -0.0862 
     13 C13        30.0751   -4.9584   -5.5976 C.ar      12 UNK        -0.0733 
     14 C14        30.0585   -5.2148   -4.2227 C.ar      12 UNK        -0.0832 
     15 C15        28.8288   -5.1911   -6.4415 C.3       12 UNK         0.0240 
     16 S16        27.4250   -4.1616   -5.8954 S.3       12 UNK        -0.2522 
     17 C17        28.1185   -2.4720   -5.9651 C.3       12 UNK        -0.0967 
     18 CA         27.4369   -1.5832   -7.0293 C.3       5 UNK         0.0660 
     19 N          25.9813   -1.5100   -6.8576 N.am      5 UNK        -0.4015 
     20 C          25.1305   -0.8883   -7.6879 C.2       4 UNK         0.4946 
     21 O          25.4892   -0.2742   -8.6916 O.2       4 UNK        -0.5353 
     22 CA         23.6324   -0.9352   -7.3452 C.3       4 UNK         0.0277 
     23 CB         22.9404   -2.0574   -8.1346 C.3       4 UNK        -0.1981 
     24 N          23.3825   -1.1172   -5.9144 N.am      4 UNK        -0.4209 
     25 C          23.6004   -0.1787   -4.9832 C.2       3 UNK         0.4942 
     26 O          23.9258    0.9806   -5.2495 O.2       3 UNK        -0.5208 
     27 CA         23.4364   -0.6058   -3.5093 C.3       3 UNK         0.0250 
     28 CB         23.4539   -2.1383   -3.2976 C.3       3 UNK        -0.1990 
     29 N          24.4219    0.0216   -2.6202 N.am      3 UNK        -0.4232 
     30 C          25.7590    0.0000   -2.7387 C.2       2 UNK         0.4993 
     31 O          26.3616   -0.4928   -3.6961 O.2       2 UNK        -0.5286 
     32 CA         26.5761    0.6433   -1.5980 C.3       2 UNK         0.0209 
     33 CB         25.7324    1.1135   -0.3891 C.3       2 UNK        -0.1931 
     34 N          27.6721   -0.2267   -1.1496 N.am      2 UNK        -0.4546 
     35 C          27.5610   -1.4655   -0.6447 C.2       1 UNK         0.5154 
     36 O          26.4899   -2.0632   -0.5017 O.2       1 UNK        -0.5181 
     37 C          28.0907   -0.1896   -7.0542 C.2       5 UNK         0.5014 
     38 O          28.9706    0.0510   -7.8814 O.2       5 UNK        -0.5248 
     39 N          27.6101    0.7193   -6.1958 N.am      6 UNK        -0.4434 
     40 CA         28.0227    2.1244   -6.1494 C.3       6 UNK         0.0363 
     41 CB         27.4493    2.7761   -4.8830 C.3       6 UNK        -0.1936 
     42 C          27.6543    2.9472   -7.3999 C.2       6 UNK         0.5081 
     43 O          28.2265    4.0210   -7.5855 O.2       6 UNK        -0.5248 
     44 N          26.7307    2.4504   -8.2332 N.am      7 UNK        -0.4718 
     45 CA         26.3651    3.0553   -9.5138 C.3       7 UNK         0.0273 
     46 CB         24.8347    3.0420   -9.6697 C.3       7 UNK        -0.1935 
     47 C          27.0395    2.3195  -10.6810 C.2       7 UNK         0.5018 
     48 O          27.6183    2.9710  -11.5507 O.2       7 UNK        -0.5186 
     49 N          26.9378    0.9832  -10.6906 N.am      8 UNK        -0.4240 
     50 CA         27.3924    0.1194  -11.7806 C.3       8 UNK         0.0235 
     51 CB         26.7138   -1.2554  -11.6567 C.3       8 UNK        -0.2000 
     52 C          28.9185   -0.0366  -11.8460 C.2       8 UNK         0.4941 
     53 O          29.4864    0.0740  -12.9335 O.2       8 UNK        -0.5273 
     54 N          29.5472   -0.3125  -10.6964 N.am      9 UNK        -0.4262 
     55 CA         30.9861   -0.5685  -10.5775 C.3       9 UNK         0.0264 
     56 CB         31.1898   -1.8507   -9.7527 C.3       9 UNK        -0.1955 
     57 C          31.7437    0.6102   -9.9428 C.2       9 UNK         0.5031 
     58 O          32.9661    0.6723  -10.0785 O.2       9 UNK        -0.5390 
     59 N          31.0145    1.5081   -9.2628 N.am      10 UNK        -0.4204 
     60 CA         31.4939    2.6605   -8.4894 C.3       10 UNK         0.0237 
     61 CB         32.2502    3.6701   -9.3800 C.3       10 UNK        -0.1985 
     62 C          32.2768    2.2579   -7.2235 C.2       10 UNK         0.4970 
     63 O          33.1235    3.0243   -6.7605 O.2       10 UNK        -0.4914 
     64 N          31.9783    1.0706   -6.6814 N.am      11 UNK        -0.4285 
     65 CA         32.5863    0.5342   -5.4568 C.3       11 UNK         0.1007 
     66 C          32.0271    1.2263   -4.1860 C.2       11 UNK         0.5703 
     67 N          32.8726    1.4929   -3.1999 N.am      11 UNK        -0.7361 
     68 O          30.8310    1.4846   -4.0700 O.2       11 UNK        -0.4986 
     69 C69        32.4157   -1.0017   -5.3655 C.3       12 UNK        -0.0947 
     70 S70        33.2084   -1.8681   -6.7625 S.3       12 UNK        -0.2240 
     71 C71        33.5802   -3.4989   -6.0393 C.3       12 UNK         0.0194 
     72 H72        28.2288   -4.7308    2.7766 H         1 UNK         0.0906 
     73 H73        28.9201   -3.6643    4.0005 H         1 UNK         0.0906 
     74 H74        27.1916   -3.5979    3.6456 H         1 UNK         0.0906 
     75 H75        28.6452   -4.0385    0.6856 H         1 UNK         0.3140 
     76 H76        29.5738   -1.3755    0.0871 H         1 UNK         0.1085 
     77 H77        28.8551   -3.6908   -1.7882 H         1 UNK         0.0836 
     78 H78        29.6494   -2.2179   -2.2859 H         1 UNK         0.0836 
     79 H79        32.0220   -5.7411   -1.6417 H         1 UNK         0.0731 
     80 H80        30.2758   -5.7497   -1.6409 H         1 UNK         0.0731 
     81 H81        33.1823   -4.1592   -3.4226 H         1 UNK         0.1312 
     82 H82        31.2493   -4.2243   -7.2476 H         1 UNK         0.1406 
     83 H83        29.1605   -5.6072   -3.7650 H         1 UNK         0.1631 
     84 H84        28.5444   -6.2423   -6.3797 H         1 UNK         0.0717 
     85 H85        29.0256   -4.9854   -7.4949 H         1 UNK         0.0717 
     86 H86        29.1902   -2.5167   -6.1606 H         1 UNK         0.0934 
     87 H87        28.0216   -2.0348   -4.9699 H         1 UNK         0.0934 
     88 H88        27.6164   -2.0348   -8.0074 H         1 UNK         0.0739 
     89 H89        25.6134   -1.9719   -6.0392 H         1 UNK         0.3093 
     90 H90        23.1969    0.0183   -7.6524 H         1 UNK         0.0818 
     91 H91        21.8641   -2.0598   -7.9612 H         1 UNK         0.0819 
     92 H92        23.0932   -1.9290   -9.2074 H         1 UNK         0.0819 
     93 H93        23.3276   -3.0413   -7.8665 H         1 UNK         0.0819 
     94 H94        23.0941   -2.0371   -5.6132 H         1 UNK         0.3041 
     95 H95        22.4596   -0.2357   -3.1949 H         1 UNK         0.0784 
     96 H96        22.6187   -2.6266   -3.8009 H         1 UNK         0.0793 
     97 H97        24.3793   -2.5889   -3.6601 H         1 UNK         0.0793 
     98 H98        23.3670   -2.3859   -2.2393 H         1 UNK         0.0793 
     99 H99        24.0369    0.4910   -1.8131 H         1 UNK         0.3024 
    100 H100       27.0434    1.5293   -2.0266 H         1 UNK         0.1171 
    101 H101       26.3661    1.5618    0.3765 H         1 UNK         0.0786 
    102 H102       25.1884    0.2919    0.0788 H         1 UNK         0.0786 
    103 H103       25.0076    1.8750   -0.6800 H         1 UNK         0.0786 
    104 H104       28.5994    0.1562   -1.2722 H         1 UNK         0.2977 
    105 H105       26.9207    0.4188   -5.5131 H         1 UNK         0.3127 
    106 H106       29.1115    2.1455   -6.0743 H         1 UNK         0.0770 
    107 H107       26.3647    2.6720   -4.8283 H         1 UNK         0.0814 
    108 H108       27.6814    3.8414   -4.8454 H         1 UNK         0.0814 
    109 H109       27.8846    2.3253   -3.9928 H         1 UNK         0.0814 
    110 H110       26.3208    1.5470   -8.0274 H         1 UNK         0.2983 
    111 H111       26.6907    4.0975   -9.5492 H         1 UNK         0.0947 
    112 H112       24.5361    3.4917  -10.6177 H         1 UNK         0.0806 
    113 H113       24.3534    3.6125   -8.8753 H         1 UNK         0.0806 
    114 H114       24.4272    2.0308   -9.6464 H         1 UNK         0.0806 
    115 H115       26.4181    0.5278   -9.9399 H         1 UNK         0.3000 
    116 H116       27.0675    0.5686  -12.7219 H         1 UNK         0.0850 
    117 H117       27.0181   -1.9173  -12.4686 H         1 UNK         0.0810 
    118 H118       25.6282   -1.1654  -11.7013 H         1 UNK         0.0810 
    119 H119       26.9669   -1.7501  -10.7180 H         1 UNK         0.0810 
    120 H120       29.0133   -0.3513   -9.8343 H         1 UNK         0.3040 
    121 H121       31.4239   -0.7355  -11.5639 H         1 UNK         0.0766 
    122 H122       32.2492   -2.0980   -9.6747 H         1 UNK         0.0812 
    123 H123       30.8025   -1.7492   -8.7384 H         1 UNK         0.0812 
    124 H124       30.6936   -2.7033  -10.2162 H         1 UNK         0.0812 
    125 H125       30.0324    1.2890   -9.1423 H         1 UNK         0.3205 
    126 H126       30.6010    3.1663   -8.1272 H         1 UNK         0.0754 
    127 H127       32.4472    4.5963   -8.8389 H         1 UNK         0.0769 
    128 H128       31.6687    3.9311  -10.2642 H         1 UNK         0.0769 
    129 H129       33.2124    3.2798   -9.7123 H         1 UNK         0.0769 
    130 H130       31.2484    0.5119   -7.1000 H         1 UNK         0.2981 
    131 H131       33.6574    0.7423   -5.5050 H         1 UNK         0.0541 
    132 H132       33.8537    1.2759   -3.2793 H         1 UNK         0.3459 
    133 H133       32.5227    1.9301   -2.3621 H         1 UNK         0.3459 
    134 H134       31.3591   -1.2752   -5.3403 H         1 UNK         0.0612 
    135 H135       32.8542   -1.3739   -4.4376 H         1 UNK         0.0612 
    136 H136       33.9669   -4.1538   -6.8211 H         1 UNK         0.0624 
    137 H137       34.3806   -3.3835   -5.3069 H         1 UNK         0.0624 
@<TRIPOS>BOND
     1    1    2 1    
     2    1   72 1    
     3    1   73 1    
     4    1   74 1    
     5    2    3 2    
     6    2    4 am   BACKBONE|DICT|INTERRES
     7    4    5 1    
     8    4   75 1    
     9    5    6 1    
    10    5   35 1    
    11    5   76 1    
    12    6    7 1    
    13    6   77 1    
    14    6   78 1    
    15    7    8 1    
    16    8    9 1    
    17    8   79 1    
    18    8   80 1    
    19    9   10 ar   
    20    9   14 ar   
    21   10   11 ar   
    22   10   81 1    
    23   11   12 ar   
    24   11   71 1    
    25   12   13 ar   
    26   12   82 1    
    27   13   14 ar   
    28   13   15 1    
    29   14   83 1    
    30   15   16 1    
    31   15   84 1    
    32   15   85 1    
    33   16   17 1    
    34   17   18 1    
    35   17   86 1    
    36   17   87 1    
    37   18   19 1    
    38   18   37 1    
    39   18   88 1    
    40   19   20 am   BACKBONE|DICT|INTERRES
    41   19   89 1    
    42   20   21 2    
    43   20   22 1    
    44   22   23 1    
    45   22   24 1    
    46   22   90 1    
    47   23   91 1    
    48   23   92 1    
    49   23   93 1    
    50   24   25 am   BACKBONE|DICT|INTERRES
    51   24   94 1    
    52   25   26 2    
    53   25   27 1    
    54   27   28 1    
    55   27   29 1    
    56   27   95 1    
    57   28   96 1    
    58   28   97 1    
    59   28   98 1    
    60   29   30 am   BACKBONE|DICT|INTERRES
    61   29   99 1    
    62   30   31 2    
    63   30   32 1    
    64   32   33 1    
    65   32   34 1    
    66   32  100 1    
    67   33  101 1    
    68   33  102 1    
    69   33  103 1    
    70   34   35 am   BACKBONE|DICT|INTERRES
    71   34  104 1    
    72   35   36 2    
    73   37   38 2    
    74   37   39 am   BACKBONE|DICT|INTERRES
    75   39   40 1    
    76   39  105 1    
    77   40   41 1    
    78   40   42 1    
    79   40  106 1    
    80   41  107 1    
    81   41  108 1    
    82   41  109 1    
    83   42   43 2    
    84   42   44 am   BACKBONE|DICT|INTERRES
    85   44   45 1    
    86   44  110 1    
    87   45   46 1    
    88   45   47 1    
    89   45  111 1    
    90   46  112 1    
    91   46  113 1    
    92   46  114 1    
    93   47   48 2    
    94   47   49 am   BACKBONE|DICT|INTERRES
    95   49   50 1    
    96   49  115 1    
    97   50   51 1    
    98   50   52 1    
    99   50  116 1    
   100   51  117 1    
   101   51  118 1    
   102   51  119 1    
   103   52   53 2    
   104   52   54 am   BACKBONE|DICT|INTERRES
   105   54   55 1    
   106   54  120 1    
   107   55   56 1    
   108   55   57 1    
   109   55  121 1    
   110   56  122 1    
   111   56  123 1    
   112   56  124 1    
   113   57   58 2    
   114   57   59 am   BACKBONE|DICT|INTERRES
   115   59   60 1    
   116   59  125 1    
   117   60   61 1    
   118   60   62 1    
   119   60  126 1    
   120   61  127 1    
   121   61  128 1    
   122   61  129 1    
   123   62   63 2    
   124   62   64 am   BACKBONE|DICT|INTERRES
   125   64   65 1    
   126   64  130 1    
   127   65   66 1    
   128   65   69 1    
   129   65  131 1    
   130   66   67 am   BACKBONE|DICT|INTERRES
   131   66   68 2    
   132   67  132 1    
   133   67  133 1    
   134   69   70 1    
   135   69  134 1    
   136   69  135 1    
   137   70   71 1    
   138   71  136 1    
   139   71  137 1    
@<TRIPOS>SUBSTRUCTURE
     1 UNK         1 GROUP             0       ****    0 ROOT    
