@<TRIPOS>MOLECULE
3R137
137   139    1
SMALL
USER_CHARGES


@<TRIPOS>ATOM
      1 CA         25.3323   -5.9819   -0.5841 C.3       0 UNK        -0.2020 
      2 C          26.2290   -5.6009   -1.7589 C.2       0 UNK         0.4855 
      3 O          26.0765   -6.1665   -2.8389 O.2       0 UNK        -0.5197 
      4 N          27.1718   -4.6599   -1.6067 N.am      1 UNK        -0.4892 
      5 CA         27.4500   -3.8803   -0.3897 C.3       1 UNK         0.0835 
      6 C6         28.9344   -3.4416   -0.2990 C.3       12 UNK        -0.0855 
      7 S7         30.0343   -4.8912   -0.1023 S.3       12 UNK        -0.2931 
      8 C8         31.6128   -4.3180   -0.8318 C.3       12 UNK         0.0378 
      9 C9         31.5926   -4.0223   -2.3336 C.ar      12 UNK        -0.0802 
     10 C10        32.6485   -3.2893   -2.8878 C.ar      12 UNK        -0.0944 
     11 C11        32.6529   -2.9449   -4.2439 C.ar      12 UNK        -0.0787 
     12 C12        31.5695   -3.3200   -5.0456 C.ar      12 UNK        -0.0862 
     13 C13        30.5163   -4.0650   -4.5122 C.ar      12 UNK        -0.0733 
     14 C14        30.5519   -4.4436   -3.1695 C.ar      12 UNK        -0.0832 
     15 C15        29.3108   -4.4198   -5.3680 C.3       12 UNK         0.0240 
     16 S16        27.8166   -3.5548   -4.7867 S.3       12 UNK        -0.2522 
     17 C17        28.2428   -1.8052   -5.0891 C.3       12 UNK        -0.0967 
     18 CA         27.4627   -1.2288   -6.2901 C.3       5 UNK         0.0660 
     19 N          26.0137   -1.3184   -6.1108 N.am      5 UNK        -0.4015 
     20 C          25.1240   -1.3463   -7.1120 C.2       4 UNK         0.4946 
     21 O          25.4369   -1.3482   -8.3024 O.2       4 UNK        -0.5353 
     22 CA         23.6317   -1.3389   -6.7256 C.3       4 UNK         0.0277 
     23 CB         23.1054   -2.7771   -6.5970 C.3       4 UNK        -0.1981 
     24 N          23.3558   -0.6072   -5.4846 N.am      4 UNK        -0.4209 
     25 C          23.6013    0.6981   -5.3046 C.2       3 UNK         0.4942 
     26 O          23.9918    1.4419   -6.2037 O.2       3 UNK        -0.5208 
     27 CA         23.4511    1.2673   -3.8811 C.3       3 UNK         0.0250 
     28 CB         22.0871    1.9586   -3.7284 C.3       3 UNK        -0.1990 
     29 N          23.6335    0.3065   -2.7829 N.am      3 UNK        -0.4232 
     30 C          24.6915   -0.4956   -2.5877 C.2       2 UNK         0.4993 
     31 O          25.6324   -0.5890   -3.3794 O.2       2 UNK        -0.5286 
     32 CA         24.6807   -1.3410   -1.3047 C.3       2 UNK         0.0209 
     33 CB         23.3554   -2.1099   -1.1227 C.3       2 UNK        -0.1931 
     34 N          25.7838   -2.3034   -1.3105 N.am      2 UNK        -0.4546 
     35 C          26.4795   -2.6882   -0.2318 C.2       1 UNK         0.5154 
     36 O          26.3373   -2.1796    0.8811 O.2       1 UNK        -0.5181 
     37 C          27.8900    0.2209   -6.5785 C.2       5 UNK         0.5014 
     38 O          28.8087    0.4267   -7.3709 O.2       5 UNK        -0.5248 
     39 N          27.2028    1.2065   -5.9797 N.am      6 UNK        -0.4434 
     40 CA         27.3929    2.6316   -6.2733 C.3       6 UNK         0.0363 
     41 CB         26.6415    3.4943   -5.2479 C.3       6 UNK        -0.1936 
     42 C          26.9742    2.9840   -7.7109 C.2       6 UNK         0.5081 
     43 O          27.6839    3.7322   -8.3820 O.2       6 UNK        -0.5248 
     44 N          25.8787    2.3756   -8.1887 N.am      7 UNK        -0.4718 
     45 CA         25.4315    2.4262   -9.5857 C.3       7 UNK         0.0273 
     46 CB         24.0471    1.7695   -9.7004 C.3       7 UNK        -0.1935 
     47 C          26.4255    1.7797  -10.5723 C.2       7 UNK         0.5018 
     48 O          26.4741    2.1893  -11.7320 O.2       7 UNK        -0.5186 
     49 N          27.2288    0.8224  -10.0869 N.am      8 UNK        -0.4240 
     50 CA         28.3529    0.2041  -10.7964 C.3       8 UNK         0.0235 
     51 CB         28.4664   -1.2702  -10.3670 C.3       8 UNK        -0.2000 
     52 C          29.6821    0.9632  -10.5841 C.2       8 UNK         0.4941 
     53 O          30.7426    0.4040  -10.8669 O.2       8 UNK        -0.5273 
     54 N          29.6124    2.2114  -10.0949 N.am      9 UNK        -0.4262 
     55 CA         30.7106    3.1568   -9.8640 C.3       9 UNK         0.0264 
     56 CB         31.4745    3.4665  -11.1703 C.3       9 UNK        -0.1955 
     57 C          31.6468    2.7848   -8.6986 C.2       9 UNK         0.5031 
     58 O          32.7739    3.2827   -8.6602 O.2       9 UNK        -0.5390 
     59 N          31.1731    1.9506   -7.7580 N.am      10 UNK        -0.4204 
     60 CA         31.8202    1.5814   -6.4902 C.3       10 UNK         0.0237 
     61 CB         31.7232    2.7520   -5.4891 C.3       10 UNK        -0.1985 
     62 C          33.2606    1.0561   -6.6514 C.2       10 UNK         0.4970 
     63 O          34.1416    1.4298   -5.8748 O.2       10 UNK        -0.4914 
     64 N          33.4669    0.2068   -7.6666 N.am      11 UNK        -0.4285 
     65 CA         34.7640   -0.3673   -8.0686 C.3       11 UNK         0.1007 
     66 C          35.7754    0.6630   -8.6627 C.2       11 UNK         0.5703 
     67 N          35.3845    1.8956   -8.9687 N.am      11 UNK        -0.7361 
     68 O          36.9363    0.3291   -8.8898 O.2       11 UNK        -0.4986 
     69 C69        35.4101   -1.2738   -6.9753 C.3       12 UNK        -0.0947 
     70 S70        34.3370   -2.6590   -6.4675 S.3       12 UNK        -0.2240 
     71 C71        33.7956   -2.1101   -4.8129 C.3       12 UNK         0.0194 
     72 H72        24.5787   -6.7035   -0.8991 H         1 UNK         0.0906 
     73 H73        25.9150   -6.4408    0.2140 H         1 UNK         0.0906 
     74 H74        24.8079   -5.1137   -0.1871 H         1 UNK         0.0906 
     75 H75        27.7247   -4.4129   -2.4157 H         1 UNK         0.3140 
     76 H76        27.2661   -4.5160    0.4784 H         1 UNK         0.1085 
     77 H77        29.2197   -2.8621   -1.1787 H         1 UNK         0.0836 
     78 H78        29.0950   -2.7895    0.5619 H         1 UNK         0.0836 
     79 H79        31.9319   -3.4254   -0.2913 H         1 UNK         0.0731 
     80 H80        32.3709   -5.0792   -0.6436 H         1 UNK         0.0731 
     81 H81        33.4644   -2.9696   -2.2535 H         1 UNK         0.1312 
     82 H82        31.5392   -3.0201   -6.0840 H         1 UNK         0.1406 
     83 H83        29.7366   -5.0323   -2.7767 H         1 UNK         0.1631 
     84 H84        29.4837   -4.1754   -6.4173 H         1 UNK         0.0717 
     85 H85        29.1393   -5.4962   -5.3233 H         1 UNK         0.0717 
     86 H86        28.0345   -1.2415   -4.1783 H         1 UNK         0.0934 
     87 H87        29.3157   -1.7070   -5.2568 H         1 UNK         0.0934 
     88 H88        27.7327   -1.8208   -7.1672 H         1 UNK         0.0739 
     89 H89        25.6888   -1.2791   -5.1485 H         1 UNK         0.3093 
     90 H90        23.0870   -0.8429   -7.5319 H         1 UNK         0.0818 
     91 H91        22.0326   -2.7926   -6.4040 H         1 UNK         0.0819 
     92 H92        23.2752   -3.3370   -7.5179 H         1 UNK         0.0819 
     93 H93        23.6016   -3.3191   -5.7907 H         1 UNK         0.0819 
     94 H94        23.0306   -1.1462   -4.6957 H         1 UNK         0.3041 
     95 H95        24.2274    2.0253   -3.7633 H         1 UNK         0.0784 
     96 H96        21.9333    2.6987   -4.5154 H         1 UNK         0.0793 
     97 H97        21.2640    1.2452   -3.7867 H         1 UNK         0.0793 
     98 H98        22.0111    2.4841   -2.7762 H         1 UNK         0.0793 
     99 H99        22.9056    0.3027   -2.0827 H         1 UNK         0.3024 
    100 H100       24.8076   -0.6439   -0.4732 H         1 UNK         0.1171 
    101 H101       23.3761   -2.7225   -0.2211 H         1 UNK         0.0786 
    102 H102       22.5043   -1.4362   -1.0217 H         1 UNK         0.0786 
    103 H103       23.1554   -2.7716   -1.9665 H         1 UNK         0.0786 
    104 H104       26.0090   -2.7063   -2.2104 H         1 UNK         0.2977 
    105 H105       26.4576    0.9615   -5.3431 H         1 UNK         0.3127 
    106 H106       28.4582    2.8497   -6.1791 H         1 UNK         0.0770 
    107 H107       25.5611    3.3805   -5.3308 H         1 UNK         0.0814 
    108 H108       26.8647    4.5514   -5.3983 H         1 UNK         0.0814 
    109 H109       26.9314    3.2447   -4.2271 H         1 UNK         0.0814 
    110 H110       25.3021    1.8425   -7.5415 H         1 UNK         0.2983 
    111 H111       25.3359    3.4780   -9.8639 H         1 UNK         0.0947 
    112 H112       23.6645    1.8406  -10.7194 H         1 UNK         0.0806 
    113 H113       23.3220    2.2545   -9.0465 H         1 UNK         0.0806 
    114 H114       24.0793    0.7121   -9.4374 H         1 UNK         0.0806 
    115 H115       27.1111    0.5497   -9.1205 H         1 UNK         0.3000 
    116 H116       28.1478    0.2221  -11.8687 H         1 UNK         0.0850 
    117 H117       27.5146   -1.7912  -10.4742 H         1 UNK         0.0810 
    118 H118       28.7861   -1.3665   -9.3300 H         1 UNK         0.0810 
    119 H119       29.1960   -1.8006  -10.9801 H         1 UNK         0.0810 
    120 H120       28.7000    2.5638   -9.8273 H         1 UNK         0.3040 
    121 H121       30.2267    4.0836   -9.5528 H         1 UNK         0.0766 
    122 H122       30.7923    3.7413  -11.9745 H         1 UNK         0.0812 
    123 H123       32.0666    2.6148  -11.5062 H         1 UNK         0.0812 
    124 H124       32.1623    4.3017  -11.0330 H         1 UNK         0.0812 
    125 H125       30.2506    1.5403   -7.8928 H         1 UNK         0.3205 
    126 H126       31.2433    0.7506   -6.0813 H         1 UNK         0.0754 
    127 H127       32.3006    3.6149   -5.8232 H         1 UNK         0.0769 
    128 H128       32.1037    2.4636   -4.5084 H         1 UNK         0.0769 
    129 H129       30.6917    3.0732   -5.3501 H         1 UNK         0.0769 
    130 H130       32.6877   -0.0156   -8.2691 H         1 UNK         0.2981 
    131 H131       34.5269   -1.0153   -8.9128 H         1 UNK         0.0541 
    132 H132       34.4379    2.2142   -8.7869 H         1 UNK         0.3459 
    133 H133       36.0552    2.5346   -9.3638 H         1 UNK         0.3459 
    134 H134       35.7014   -0.6893   -6.1016 H         1 UNK         0.0612 
    135 H135       36.3318   -1.7205   -7.3517 H         1 UNK         0.0612 
    136 H136       33.4643   -1.0746   -4.8547 H         1 UNK         0.0624 
    137 H137       34.6583   -2.1341   -4.1454 H         1 UNK         0.0624 
@<TRIPOS>BOND
     1    1    2 1    
     2    1   72 1    
     3    1   73 1    
     4    1   74 1    
     5    2    3 2    
     6    2    4 am   BACKBONE|DICT|INTERRES
     7    4    5 1    
     8    4   75 1    
     9    5    6 1    
    10    5   35 1    
    11    5   76 1    
    12    6    7 1    
    13    6   77 1    
    14    6   78 1    
    15    7    8 1    
    16    8    9 1    
    17    8   79 1    
    18    8   80 1    
    19    9   10 ar   
    20    9   14 ar   
    21   10   11 ar   
    22   10   81 1    
    23   11   12 ar   
    24   11   71 1    
    25   12   13 ar   
    26   12   82 1    
    27   13   14 ar   
    28   13   15 1    
    29   14   83 1    
    30   15   16 1    
    31   15   84 1    
    32   15   85 1    
    33   16   17 1    
    34   17   18 1    
    35   17   86 1    
    36   17   87 1    
    37   18   19 1    
    38   18   37 1    
    39   18   88 1    
    40   19   20 am   BACKBONE|DICT|INTERRES
    41   19   89 1    
    42   20   21 2    
    43   20   22 1    
    44   22   23 1    
    45   22   24 1    
    46   22   90 1    
    47   23   91 1    
    48   23   92 1    
    49   23   93 1    
    50   24   25 am   BACKBONE|DICT|INTERRES
    51   24   94 1    
    52   25   26 2    
    53   25   27 1    
    54   27   28 1    
    55   27   29 1    
    56   27   95 1    
    57   28   96 1    
    58   28   97 1    
    59   28   98 1    
    60   29   30 am   BACKBONE|DICT|INTERRES
    61   29   99 1    
    62   30   31 2    
    63   30   32 1    
    64   32   33 1    
    65   32   34 1    
    66   32  100 1    
    67   33  101 1    
    68   33  102 1    
    69   33  103 1    
    70   34   35 am   BACKBONE|DICT|INTERRES
    71   34  104 1    
    72   35   36 2    
    73   37   38 2    
    74   37   39 am   BACKBONE|DICT|INTERRES
    75   39   40 1    
    76   39  105 1    
    77   40   41 1    
    78   40   42 1    
    79   40  106 1    
    80   41  107 1    
    81   41  108 1    
    82   41  109 1    
    83   42   43 2    
    84   42   44 am   BACKBONE|DICT|INTERRES
    85   44   45 1    
    86   44  110 1    
    87   45   46 1    
    88   45   47 1    
    89   45  111 1    
    90   46  112 1    
    91   46  113 1    
    92   46  114 1    
    93   47   48 2    
    94   47   49 am   BACKBONE|DICT|INTERRES
    95   49   50 1    
    96   49  115 1    
    97   50   51 1    
    98   50   52 1    
    99   50  116 1    
   100   51  117 1    
   101   51  118 1    
   102   51  119 1    
   103   52   53 2    
   104   52   54 am   BACKBONE|DICT|INTERRES
   105   54   55 1    
   106   54  120 1    
   107   55   56 1    
   108   55   57 1    
   109   55  121 1    
   110   56  122 1    
   111   56  123 1    
   112   56  124 1    
   113   57   58 2    
   114   57   59 am   BACKBONE|DICT|INTERRES
   115   59   60 1    
   116   59  125 1    
   117   60   61 1    
   118   60   62 1    
   119   60  126 1    
   120   61  127 1    
   121   61  128 1    
   122   61  129 1    
   123   62   63 2    
   124   62   64 am   BACKBONE|DICT|INTERRES
   125   64   65 1    
   126   64  130 1    
   127   65   66 1    
   128   65   69 1    
   129   65  131 1    
   130   66   67 am   BACKBONE|DICT|INTERRES
   131   66   68 2    
   132   67  132 1    
   133   67  133 1    
   134   69   70 1    
   135   69  134 1    
   136   69  135 1    
   137   70   71 1    
   138   71  136 1    
   139   71  137 1    
@<TRIPOS>SUBSTRUCTURE
     1 UNK         1 GROUP             0       ****    0 ROOT    
