@<TRIPOS>MOLECULE
3R137
137   139    1
SMALL
USER_CHARGES


@<TRIPOS>ATOM
      1 CA         27.4952   -2.8299   -4.3136 C.3       0 UNK        -0.2020 
      2 C          27.1466   -3.9760   -3.3784 C.2       0 UNK         0.4855 
      3 O          26.2155   -4.7336   -3.6561 O.2       0 UNK        -0.5197 
      4 N          27.8766   -4.1124   -2.2646 N.am      1 UNK        -0.4892 
      5 CA         27.6058   -5.0942   -1.2100 C.3       1 UNK         0.0835 
      6 C6         28.7782   -5.2173   -0.2073 C.3       12 UNK        -0.0855 
      7 S7         30.2425   -5.9860   -0.9771 S.3       12 UNK        -0.2931 
      8 C8         31.4931   -4.6698   -0.8389 C.3       12 UNK         0.0378 
      9 C9         31.2119   -3.4952   -1.7662 C.ar      12 UNK        -0.0802 
     10 C10        31.2938   -3.6590   -3.1520 C.ar      12 UNK        -0.0944 
     11 C11        31.0816   -2.5825   -4.0185 C.ar      12 UNK        -0.0787 
     12 C12        30.7932   -1.3229   -3.4732 C.ar      12 UNK        -0.0862 
     13 C13        30.7083   -1.1443   -2.0901 C.ar      12 UNK        -0.0733 
     14 C14        30.9101   -2.2361   -1.2410 C.ar      12 UNK        -0.0832 
     15 C15        30.4335    0.2350   -1.5094 C.3       12 UNK         0.0240 
     16 S16        28.7086    0.7541   -1.7724 S.3       12 UNK        -0.2522 
     17 C17        28.8385    1.8340   -3.2428 C.3       12 UNK        -0.0967 
     18 CA         27.8892    1.4150   -4.3961 C.3       5 UNK         0.0660 
     19 N          26.4971    1.3421   -3.9422 N.am      5 UNK        -0.4015 
     20 C          25.5164    0.6502   -4.5318 C.2       4 UNK         0.4946 
     21 O          25.6624   -0.0092   -5.5650 O.2       4 UNK        -0.5353 
     22 CA         24.1279    0.7432   -3.8771 C.3       4 UNK         0.0277 
     23 CB         23.2481    1.7534   -4.6317 C.3       4 UNK        -0.1981 
     24 N          23.4581   -0.5584   -3.8509 N.am      4 UNK        -0.4209 
     25 C          23.8792   -1.6072   -3.1323 C.2       3 UNK         0.4942 
     26 O          24.8321   -1.5565   -2.3505 O.2       3 UNK        -0.5208 
     27 CA         23.1078   -2.9227   -3.3376 C.3       3 UNK         0.0250 
     28 CB         23.2443   -3.4276   -4.7862 C.3       3 UNK        -0.1990 
     29 N          23.6036   -3.9589   -2.4306 N.am      3 UNK        -0.4232 
     30 C          23.1418   -4.1757   -1.1908 C.2       2 UNK         0.4993 
     31 O          22.1745   -3.5830   -0.7096 O.2       2 UNK        -0.5286 
     32 CA         23.8599   -5.2392   -0.3382 C.3       2 UNK         0.0209 
     33 CB         23.0648   -6.5557   -0.3403 C.3       2 UNK        -0.1931 
     34 N          25.2266   -5.5060   -0.7935 N.am      2 UNK        -0.4546 
     35 C          26.2851   -4.7399   -0.4975 C.2       1 UNK         0.5154 
     36 O          26.2457   -3.7815    0.2770 O.2       1 UNK        -0.5181 
     37 C          27.9921    2.3674   -5.6085 C.2       5 UNK         0.5014 
     38 O          28.5017    3.4829   -5.4774 O.2       5 UNK        -0.5248 
     39 N          27.4413    1.9356   -6.7488 N.am      6 UNK        -0.4434 
     40 CA         27.3147    2.7164   -7.9779 C.3       6 UNK         0.0363 
     41 CB         26.3684    1.9750   -8.9366 C.3       6 UNK        -0.1936 
     42 C          28.6592    2.9843   -8.6716 C.2       6 UNK         0.5081 
     43 O          29.5465    2.1252   -8.6747 O.2       6 UNK        -0.5248 
     44 N          28.7536    4.1453   -9.3323 N.am      7 UNK        -0.4718 
     45 CA         29.8705    4.5024  -10.2137 C.3       7 UNK         0.0273 
     46 CB         29.7694    5.9849  -10.6050 C.3       7 UNK        -0.1935 
     47 C          29.9289    3.6113  -11.4663 C.2       7 UNK         0.5018 
     48 O          31.0212    3.2597  -11.9087 O.2       7 UNK        -0.5186 
     49 N          28.7537    3.2026  -11.9690 N.am      8 UNK        -0.4240 
     50 CA         28.5889    2.2518  -13.0741 C.3       8 UNK         0.0235 
     51 CB         27.1070    2.2014  -13.4798 C.3       8 UNK        -0.2000 
     52 C          29.1061    0.8358  -12.7551 C.2       8 UNK         0.4941 
     53 O          29.4975    0.1187  -13.6760 O.2       8 UNK        -0.5273 
     54 N          29.1236    0.4685  -11.4653 N.am      9 UNK        -0.4262 
     55 CA         29.7116   -0.7739  -10.9586 C.3       9 UNK         0.0264 
     56 CB         28.9717   -1.1897   -9.6747 C.3       9 UNK        -0.1955 
     57 C          31.2282   -0.6546  -10.7055 C.2       9 UNK         0.5031 
     58 O          31.8556   -1.6659  -10.3890 O.2       9 UNK        -0.5390 
     59 N          31.7868    0.5604  -10.8418 N.am      10 UNK        -0.4204 
     60 CA         33.1849    0.9393  -10.6091 C.3       10 UNK         0.0237 
     61 CB         34.1221    0.2504  -11.6249 C.3       10 UNK        -0.1985 
     62 C          33.6344    0.7537   -9.1465 C.2       10 UNK         0.4970 
     63 O          34.8065    0.4583   -8.9040 O.2       10 UNK        -0.4914 
     64 N          32.7068    0.9430   -8.2001 N.am      11 UNK        -0.4285 
     65 CA         32.9469    0.7799   -6.7581 C.3       11 UNK         0.1007 
     66 C          32.1723    1.7796   -5.8563 C.2       11 UNK         0.5703 
     67 N          31.2721    2.5983   -6.3833 N.am      11 UNK        -0.7361 
     68 O          32.4117    1.8317   -4.6527 O.2       11 UNK        -0.4986 
     69 C69        32.7892   -0.6961   -6.3070 C.3       12 UNK        -0.0947 
     70 S70        31.1190   -1.3729   -6.6003 S.3       12 UNK        -0.2240 
     71 C71        31.1674   -2.8450   -5.5247 C.3       12 UNK         0.0194 
     72 H72        28.0700   -3.1933   -5.1636 H         1 UNK         0.0906 
     73 H73        26.5843   -2.3697   -4.6933 H         1 UNK         0.0906 
     74 H74        28.0690   -2.0562   -3.8048 H         1 UNK         0.0906 
     75 H75        28.6440   -3.4786   -2.0870 H         1 UNK         0.3140 
     76 H76        27.4794   -6.0686   -1.6881 H         1 UNK         0.1085 
     77 H77        28.4933   -5.8461    0.6387 H         1 UNK         0.0836 
     78 H78        29.0340   -4.2433    0.2143 H         1 UNK         0.0836 
     79 H79        32.4687   -5.0887   -1.0897 H         1 UNK         0.0731 
     80 H80        31.5619   -4.3451    0.2007 H         1 UNK         0.0731 
     81 H81        31.5249   -4.6354   -3.5567 H         1 UNK         0.1312 
     82 H82        30.6320   -0.4681   -4.1127 H         1 UNK         0.1406 
     83 H83        30.8544   -2.1001   -0.1691 H         1 UNK         0.1631 
     84 H84        31.1281    0.9615   -1.9334 H         1 UNK         0.0717 
     85 H85        30.6256    0.2363   -0.4354 H         1 UNK         0.0717 
     86 H86        28.6229    2.8536   -2.9169 H         1 UNK         0.0934 
     87 H87        29.8685    1.8500   -3.6010 H         1 UNK         0.0934 
     88 H88        28.1964    0.4224   -4.7340 H         1 UNK         0.0739 
     89 H89        26.2874    1.8652   -3.1047 H         1 UNK         0.3093 
     90 H90        24.2416    1.0828   -2.8451 H         1 UNK         0.0818 
     91 H91        23.7104    2.7414   -4.6441 H         1 UNK         0.0819 
     92 H92        23.0910    1.4556   -5.6694 H         1 UNK         0.0819 
     93 H93        22.2709    1.8606   -4.1604 H         1 UNK         0.0819 
     94 H94        22.6902   -0.6838   -4.4939 H         1 UNK         0.3041 
     95 H95        22.0515   -2.7336   -3.1345 H         1 UNK         0.0784 
     96 H96        22.7821   -2.7384   -5.4935 H         1 UNK         0.0793 
     97 H97        24.2882   -3.5399   -5.0802 H         1 UNK         0.0793 
     98 H98        22.7558   -4.3934   -4.9166 H         1 UNK         0.0793 
     99 H99        24.4565   -4.4253   -2.7242 H         1 UNK         0.3024 
    100 H100       23.8950   -4.8627    0.6871 H         1 UNK         0.1171 
    101 H101       22.9915   -6.9828   -1.3413 H         1 UNK         0.0786 
    102 H102       23.5260   -7.2991    0.3102 H         1 UNK         0.0786 
    103 H103       22.0478   -6.3976    0.0215 H         1 UNK         0.0786 
    104 H104       25.3423   -6.2570   -1.4601 H         1 UNK         0.2977 
    105 H105       26.9855    1.0289   -6.7302 H         1 UNK         0.3127 
    106 H106       26.8619    3.6748   -7.7145 H         1 UNK         0.0770 
    107 H107       26.2108    2.5411   -9.8554 H         1 UNK         0.0814 
    108 H108       25.3886    1.8205   -8.4837 H         1 UNK         0.0814 
    109 H109       26.7624    0.9974   -9.2172 H         1 UNK         0.0814 
    110 H110       27.9903    4.8052   -9.2752 H         1 UNK         0.2983 
    111 H111       30.8011    4.3557   -9.6604 H         1 UNK         0.0947 
    112 H112       30.6029    6.2758  -11.2461 H         1 UNK         0.0806 
    113 H113       29.7996    6.6296   -9.7263 H         1 UNK         0.0806 
    114 H114       28.8491    6.2009  -11.1492 H         1 UNK         0.0806 
    115 H115       27.9090    3.5550  -11.5435 H         1 UNK         0.3000 
    116 H116       29.1663    2.6253  -13.9227 H         1 UNK         0.0850 
    117 H117       26.7460    3.1820  -13.7907 H         1 UNK         0.0810 
    118 H118       26.4745    1.8526  -12.6624 H         1 UNK         0.0810 
    119 H119       26.9559    1.5224  -14.3204 H         1 UNK         0.0810 
    120 H120       28.8073    1.1273  -10.7677 H         1 UNK         0.3040 
    121 H121       29.5697   -1.5647  -11.6984 H         1 UNK         0.0766 
    122 H122       29.3535   -2.1383   -9.2947 H         1 UNK         0.0812 
    123 H123       27.9048   -1.3212   -9.8546 H         1 UNK         0.0812 
    124 H124       29.0912   -0.4546   -8.8787 H         1 UNK         0.0812 
    125 H125       31.1921    1.3262  -11.1373 H         1 UNK         0.3205 
    126 H126       33.2378    2.0124  -10.7976 H         1 UNK         0.0754 
    127 H127       35.1357    0.6469  -11.5546 H         1 UNK         0.0769 
    128 H128       33.7836    0.4121  -12.6484 H         1 UNK         0.0769 
    129 H129       34.1823   -0.8253  -11.4568 H         1 UNK         0.0769 
    130 H130       31.7572    1.1583   -8.4716 H         1 UNK         0.2981 
    131 H131       33.9888    1.0492   -6.5750 H         1 UNK         0.0541 
    132 H132       30.9675    2.5089   -7.3432 H         1 UNK         0.3459 
    133 H133       30.7734    3.2313   -5.7761 H         1 UNK         0.3459 
    134 H134       33.0447   -0.7990   -5.2512 H         1 UNK         0.0612 
    135 H135       33.5022   -1.3229   -6.8444 H         1 UNK         0.0612 
    136 H136       32.0820   -3.3984   -5.7431 H         1 UNK         0.0624 
    137 H137       30.3418   -3.4973   -5.8095 H         1 UNK         0.0624 
@<TRIPOS>BOND
     1    1    2 1    
     2    1   72 1    
     3    1   73 1    
     4    1   74 1    
     5    2    3 2    
     6    2    4 am   BACKBONE|DICT|INTERRES
     7    4    5 1    
     8    4   75 1    
     9    5    6 1    
    10    5   35 1    
    11    5   76 1    
    12    6    7 1    
    13    6   77 1    
    14    6   78 1    
    15    7    8 1    
    16    8    9 1    
    17    8   79 1    
    18    8   80 1    
    19    9   10 ar   
    20    9   14 ar   
    21   10   11 ar   
    22   10   81 1    
    23   11   12 ar   
    24   11   71 1    
    25   12   13 ar   
    26   12   82 1    
    27   13   14 ar   
    28   13   15 1    
    29   14   83 1    
    30   15   16 1    
    31   15   84 1    
    32   15   85 1    
    33   16   17 1    
    34   17   18 1    
    35   17   86 1    
    36   17   87 1    
    37   18   19 1    
    38   18   37 1    
    39   18   88 1    
    40   19   20 am   BACKBONE|DICT|INTERRES
    41   19   89 1    
    42   20   21 2    
    43   20   22 1    
    44   22   23 1    
    45   22   24 1    
    46   22   90 1    
    47   23   91 1    
    48   23   92 1    
    49   23   93 1    
    50   24   25 am   BACKBONE|DICT|INTERRES
    51   24   94 1    
    52   25   26 2    
    53   25   27 1    
    54   27   28 1    
    55   27   29 1    
    56   27   95 1    
    57   28   96 1    
    58   28   97 1    
    59   28   98 1    
    60   29   30 am   BACKBONE|DICT|INTERRES
    61   29   99 1    
    62   30   31 2    
    63   30   32 1    
    64   32   33 1    
    65   32   34 1    
    66   32  100 1    
    67   33  101 1    
    68   33  102 1    
    69   33  103 1    
    70   34   35 am   BACKBONE|DICT|INTERRES
    71   34  104 1    
    72   35   36 2    
    73   37   38 2    
    74   37   39 am   BACKBONE|DICT|INTERRES
    75   39   40 1    
    76   39  105 1    
    77   40   41 1    
    78   40   42 1    
    79   40  106 1    
    80   41  107 1    
    81   41  108 1    
    82   41  109 1    
    83   42   43 2    
    84   42   44 am   BACKBONE|DICT|INTERRES
    85   44   45 1    
    86   44  110 1    
    87   45   46 1    
    88   45   47 1    
    89   45  111 1    
    90   46  112 1    
    91   46  113 1    
    92   46  114 1    
    93   47   48 2    
    94   47   49 am   BACKBONE|DICT|INTERRES
    95   49   50 1    
    96   49  115 1    
    97   50   51 1    
    98   50   52 1    
    99   50  116 1    
   100   51  117 1    
   101   51  118 1    
   102   51  119 1    
   103   52   53 2    
   104   52   54 am   BACKBONE|DICT|INTERRES
   105   54   55 1    
   106   54  120 1    
   107   55   56 1    
   108   55   57 1    
   109   55  121 1    
   110   56  122 1    
   111   56  123 1    
   112   56  124 1    
   113   57   58 2    
   114   57   59 am   BACKBONE|DICT|INTERRES
   115   59   60 1    
   116   59  125 1    
   117   60   61 1    
   118   60   62 1    
   119   60  126 1    
   120   61  127 1    
   121   61  128 1    
   122   61  129 1    
   123   62   63 2    
   124   62   64 am   BACKBONE|DICT|INTERRES
   125   64   65 1    
   126   64  130 1    
   127   65   66 1    
   128   65   69 1    
   129   65  131 1    
   130   66   67 am   BACKBONE|DICT|INTERRES
   131   66   68 2    
   132   67  132 1    
   133   67  133 1    
   134   69   70 1    
   135   69  134 1    
   136   69  135 1    
   137   70   71 1    
   138   71  136 1    
   139   71  137 1    
@<TRIPOS>SUBSTRUCTURE
     1 UNK         1 GROUP             0       ****    0 ROOT    
