@<TRIPOS>MOLECULE
3R137
137   139    1
SMALL
USER_CHARGES


@<TRIPOS>ATOM
      1 CA         23.3327   -6.2129   -1.5442 C.3       0 UNK        -0.2020 
      2 C          24.5546   -5.3836   -1.1799 C.2       0 UNK         0.4855 
      3 O          24.6095   -4.8178   -0.0872 O.2       0 UNK        -0.5197 
      4 N          25.5338   -5.2922   -2.0896 N.am      1 UNK        -0.4892 
      5 CA         26.7787   -4.5300   -1.9321 C.3       1 UNK         0.0835 
      6 C6         27.8967   -5.1252   -2.8283 C.3       12 UNK        -0.0855 
      7 S7         29.5710   -4.5775   -2.3444 S.3       12 UNK        -0.2931 
      8 C8         30.0883   -3.6598   -3.8321 C.3       12 UNK         0.0378 
      9 C9         30.9279   -2.4419   -3.4865 C.ar      12 UNK        -0.0802 
     10 C10        32.2469   -2.3294   -3.9328 C.ar      12 UNK        -0.0944 
     11 C11        32.9940   -1.1817   -3.6485 C.ar      12 UNK        -0.0787 
     12 C12        32.4090   -0.1384   -2.9220 C.ar      12 UNK        -0.0862 
     13 C13        31.0879   -0.2411   -2.4728 C.ar      12 UNK        -0.0733 
     14 C14        30.3602   -1.4008   -2.7501 C.ar      12 UNK        -0.0832 
     15 C15        30.4528    0.8888   -1.6743 C.3       12 UNK         0.0240 
     16 S16        29.5879    2.0880   -2.7411 S.3       12 UNK        -0.2522 
     17 C17        28.0443    1.2078   -3.1604 C.3       12 UNK        -0.0967 
     18 CA         27.8251    1.0975   -4.6936 C.3       5 UNK         0.0660 
     19 N          27.2023   -0.1725   -5.0853 N.am      5 UNK        -0.4015 
     20 C          27.0080   -0.5706   -6.3523 C.2       4 UNK         0.4946 
     21 O          27.4501    0.0271   -7.3338 O.2       4 UNK        -0.5353 
     22 CA         26.1223   -1.8094   -6.5702 C.3       4 UNK         0.0277 
     23 CB         26.9501   -3.1014   -6.6054 C.3       4 UNK        -0.1981 
     24 N          25.0700   -1.9215   -5.5580 N.am      4 UNK        -0.4209 
     25 C          23.9829   -1.1377   -5.5172 C.2       3 UNK         0.4942 
     26 O          23.7297   -0.2780   -6.3597 O.2       3 UNK        -0.5208 
     27 CA         23.0455   -1.3098   -4.3097 C.3       3 UNK         0.0250 
     28 CB         22.0869   -2.4910   -4.5296 C.3       3 UNK        -0.1990 
     29 N          23.7693   -1.4932   -3.0491 N.am      3 UNK        -0.4232 
     30 C          24.5785   -0.5782   -2.4962 C.2       2 UNK         0.4993 
     31 O          24.7659    0.5430   -2.9667 O.2       2 UNK        -0.5286 
     32 CA         25.3551   -1.0027   -1.2388 C.3       2 UNK         0.0209 
     33 CB         24.5377   -0.6976    0.0258 C.3       2 UNK        -0.1931 
     34 N          25.7524   -2.4152   -1.2345 N.am      2 UNK        -0.4546 
     35 C          26.5170   -3.0212   -2.1539 C.2       1 UNK         0.5154 
     36 O          26.9448   -2.4448   -3.1569 O.2       1 UNK        -0.5181 
     37 C          27.0212    2.3009   -5.2312 C.2       5 UNK         0.5014 
     38 O          27.5915    3.1699   -5.8910 O.2       5 UNK        -0.5248 
     39 N          25.7023    2.3010   -4.9800 N.am      6 UNK        -0.4434 
     40 CA         24.7489    3.3088   -5.4556 C.3       6 UNK         0.0363 
     41 CB         23.3732    3.0520   -4.8207 C.3       6 UNK        -0.1936 
     42 C          24.6361    3.3706   -6.9893 C.2       6 UNK         0.5081 
     43 O          24.5056    4.4632   -7.5413 O.2       6 UNK        -0.5248 
     44 N          24.7246    2.2093   -7.6526 N.am      7 UNK        -0.4718 
     45 CA         24.7813    2.0797   -9.1130 C.3       7 UNK         0.0273 
     46 CB         24.4466    0.6304   -9.5014 C.3       7 UNK        -0.1935 
     47 C          26.1333    2.4989   -9.7263 C.2       7 UNK         0.5018 
     48 O          26.2221    2.5858  -10.9519 O.2       7 UNK        -0.5186 
     49 N          27.1479    2.7423   -8.8825 N.am      8 UNK        -0.4240 
     50 CA         28.5242    3.1180   -9.2149 C.3       8 UNK         0.0235 
     51 CB         28.5739    4.5057   -9.8909 C.3       8 UNK        -0.2000 
     52 C          29.2656    2.0242  -10.0051 C.2       8 UNK         0.4941 
     53 O          29.9146    2.3225  -11.0110 O.2       8 UNK        -0.5273 
     54 N          29.1651    0.7735   -9.5312 N.am      9 UNK        -0.4262 
     55 CA         29.9310   -0.3686  -10.0384 C.3       9 UNK         0.0264 
     56 CB         29.4116   -1.6560   -9.3792 C.3       9 UNK        -0.1955 
     57 C          31.4401   -0.2053   -9.7758 C.2       9 UNK         0.5031 
     58 O          31.8273    0.3997   -8.7722 O.2       9 UNK        -0.5390 
     59 N          32.2631   -0.7562  -10.6768 N.am      10 UNK        -0.4204 
     60 CA         33.7239   -0.7133  -10.5935 C.3       10 UNK         0.0237 
     61 CB         34.3246   -1.1442  -11.9421 C.3       10 UNK        -0.1985 
     62 C          34.2536   -1.6004   -9.4549 C.2       10 UNK         0.4970 
     63 O          33.8550   -2.7632   -9.3559 O.2       10 UNK        -0.4914 
     64 N          35.1585   -1.0404   -8.6460 N.am      11 UNK        -0.4285 
     65 CA         35.8266   -1.7237   -7.5254 C.3       11 UNK         0.1007 
     66 C          37.1095   -2.5043   -7.9353 C.2       11 UNK         0.5703 
     67 N          37.5658   -2.4368   -9.1810 N.am      11 UNK        -0.7361 
     68 O          37.6960   -3.1991   -7.1087 O.2       11 UNK        -0.4986 
     69 C69        36.1048   -0.7416   -6.3559 C.3       12 UNK        -0.0947 
     70 S70        34.5560   -0.0887   -5.6463 S.3       12 UNK        -0.2240 
     71 C71        34.4337   -1.0773   -4.1253 C.3       12 UNK         0.0194 
     72 H72        23.4137   -6.6445   -2.5416 H         1 UNK         0.0906 
     73 H73        23.2077   -7.0278   -0.8315 H         1 UNK         0.0906 
     74 H74        22.4364   -5.5940   -1.5141 H         1 UNK         0.0906 
     75 H75        25.4232   -5.7642   -2.9764 H         1 UNK         0.3140 
     76 H76        27.1072   -4.6404   -0.8956 H         1 UNK         0.1085 
     77 H77        27.8949   -6.2125   -2.7337 H         1 UNK         0.0836 
     78 H78        27.7044   -4.9298   -3.8838 H         1 UNK         0.0836 
     79 H79        29.2192   -3.3055   -4.3821 H         1 UNK         0.0731 
     80 H80        30.6236   -4.3353   -4.5011 H         1 UNK         0.0731 
     81 H81        32.6910   -3.1312   -4.5071 H         1 UNK         0.1312 
     82 H82        32.9824    0.7538   -2.7097 H         1 UNK         0.1406 
     83 H83        29.3452   -1.5071   -2.3965 H         1 UNK         0.1631 
     84 H84        31.2239    1.4183   -1.1127 H         1 UNK         0.0717 
     85 H85        29.7611    0.4904   -0.9303 H         1 UNK         0.0717 
     86 H86        28.0703    0.2180   -2.7121 H         1 UNK         0.0934 
     87 H87        27.2145    1.7113   -2.6600 H         1 UNK         0.0934 
     88 H88        28.7997    1.1095   -5.1875 H         1 UNK         0.0739 
     89 H89        26.8638   -0.7713   -4.3406 H         1 UNK         0.3093 
     90 H90        25.6456   -1.7004   -7.5457 H         1 UNK         0.0818 
     91 H91        27.3831   -3.3265   -5.6344 H         1 UNK         0.0819 
     92 H92        26.3377   -3.9531   -6.9014 H         1 UNK         0.0819 
     93 H93        27.7683   -3.0279   -7.3218 H         1 UNK         0.0819 
     94 H94        25.2390   -2.5620   -4.7952 H         1 UNK         0.3041 
     95 H95        22.4509   -0.3978   -4.2223 H         1 UNK         0.0784 
     96 H96        21.5253   -2.3686   -5.4570 H         1 UNK         0.0793 
     97 H97        22.6190   -3.4411   -4.5938 H         1 UNK         0.0793 
     98 H98        21.3596   -2.5673   -3.7211 H         1 UNK         0.0793 
     99 H99        23.6734   -2.3855   -2.5873 H         1 UNK         0.3024 
    100 H100       26.2678   -0.4054   -1.2051 H         1 UNK         0.1171 
    101 H101       24.2413    0.3520    0.0560 H         1 UNK         0.0786 
    102 H102       25.1160   -0.8949    0.9287 H         1 UNK         0.0786 
    103 H103       23.6271   -1.2962    0.0733 H         1 UNK         0.0786 
    104 H104       25.3795   -2.9978   -0.4905 H         1 UNK         0.2977 
    105 H105       25.3234    1.5695   -4.3794 H         1 UNK         0.3127 
    106 H106       25.1058    4.2825   -5.1138 H         1 UNK         0.0770 
    107 H107       22.9721    2.0795   -5.1080 H         1 UNK         0.0814 
    108 H108       22.6517    3.8085   -5.1321 H         1 UNK         0.0814 
    109 H109       23.4267    3.0822   -3.7323 H         1 UNK         0.0814 
    110 H110       24.7406    1.3460   -7.1186 H         1 UNK         0.2983 
    111 H111       24.0176    2.7321   -9.5417 H         1 UNK         0.0947 
    112 H112       24.3863    0.5198  -10.5848 H         1 UNK         0.0806 
    113 H113       23.4868    0.3172   -9.0903 H         1 UNK         0.0806 
    114 H114       25.2091   -0.0628   -9.1474 H         1 UNK         0.0806 
    115 H115       26.9704    2.6212   -7.8919 H         1 UNK         0.3000 
    116 H116       29.0494    3.2030   -8.2623 H         1 UNK         0.0850 
    117 H117       29.6044    4.8389  -10.0196 H         1 UNK         0.0810 
    118 H118       28.0636    5.2574   -9.2887 H         1 UNK         0.0810 
    119 H119       28.1115    4.4948  -10.8782 H         1 UNK         0.0810 
    120 H120       28.5947    0.6042   -8.7041 H         1 UNK         0.3040 
    121 H121       29.7633   -0.4318  -11.1156 H         1 UNK         0.0766 
    122 H122       28.3444   -1.7910   -9.5573 H         1 UNK         0.0812 
    123 H123       29.5735   -1.6426   -8.3005 H         1 UNK         0.0812 
    124 H124       29.9222   -2.5349   -9.7747 H         1 UNK         0.0812 
    125 H125       31.8686   -1.2732  -11.4494 H         1 UNK         0.3205 
    126 H126       34.0181    0.3218  -10.4055 H         1 UNK         0.0754 
    127 H127       35.4139   -1.0917  -11.9197 H         1 UNK         0.0769 
    128 H128       33.9881   -0.4966  -12.7521 H         1 UNK         0.0769 
    129 H129       34.0535   -2.1698  -12.1969 H         1 UNK         0.0769 
    130 H130       35.4285   -0.0798   -8.7975 H         1 UNK         0.2981 
    131 H131       35.1473   -2.4878   -7.1423 H         1 UNK         0.0541 
    132 H132       37.0929   -1.8765   -9.8708 H         1 UNK         0.3459 
    133 H133       38.3942   -2.9537   -9.4308 H         1 UNK         0.3459 
    134 H134       36.6815   -1.2218   -5.5632 H         1 UNK         0.0612 
    135 H135       36.7098    0.0993   -6.6991 H         1 UNK         0.0612 
    136 H136       35.0561   -0.6267   -3.3508 H         1 UNK         0.0624 
    137 H137       34.8359   -2.0761   -4.3031 H         1 UNK         0.0624 
@<TRIPOS>BOND
     1    1    2 1    
     2    1   72 1    
     3    1   73 1    
     4    1   74 1    
     5    2    3 2    
     6    2    4 am   BACKBONE|DICT|INTERRES
     7    4    5 1    
     8    4   75 1    
     9    5    6 1    
    10    5   35 1    
    11    5   76 1    
    12    6    7 1    
    13    6   77 1    
    14    6   78 1    
    15    7    8 1    
    16    8    9 1    
    17    8   79 1    
    18    8   80 1    
    19    9   10 ar   
    20    9   14 ar   
    21   10   11 ar   
    22   10   81 1    
    23   11   12 ar   
    24   11   71 1    
    25   12   13 ar   
    26   12   82 1    
    27   13   14 ar   
    28   13   15 1    
    29   14   83 1    
    30   15   16 1    
    31   15   84 1    
    32   15   85 1    
    33   16   17 1    
    34   17   18 1    
    35   17   86 1    
    36   17   87 1    
    37   18   19 1    
    38   18   37 1    
    39   18   88 1    
    40   19   20 am   BACKBONE|DICT|INTERRES
    41   19   89 1    
    42   20   21 2    
    43   20   22 1    
    44   22   23 1    
    45   22   24 1    
    46   22   90 1    
    47   23   91 1    
    48   23   92 1    
    49   23   93 1    
    50   24   25 am   BACKBONE|DICT|INTERRES
    51   24   94 1    
    52   25   26 2    
    53   25   27 1    
    54   27   28 1    
    55   27   29 1    
    56   27   95 1    
    57   28   96 1    
    58   28   97 1    
    59   28   98 1    
    60   29   30 am   BACKBONE|DICT|INTERRES
    61   29   99 1    
    62   30   31 2    
    63   30   32 1    
    64   32   33 1    
    65   32   34 1    
    66   32  100 1    
    67   33  101 1    
    68   33  102 1    
    69   33  103 1    
    70   34   35 am   BACKBONE|DICT|INTERRES
    71   34  104 1    
    72   35   36 2    
    73   37   38 2    
    74   37   39 am   BACKBONE|DICT|INTERRES
    75   39   40 1    
    76   39  105 1    
    77   40   41 1    
    78   40   42 1    
    79   40  106 1    
    80   41  107 1    
    81   41  108 1    
    82   41  109 1    
    83   42   43 2    
    84   42   44 am   BACKBONE|DICT|INTERRES
    85   44   45 1    
    86   44  110 1    
    87   45   46 1    
    88   45   47 1    
    89   45  111 1    
    90   46  112 1    
    91   46  113 1    
    92   46  114 1    
    93   47   48 2    
    94   47   49 am   BACKBONE|DICT|INTERRES
    95   49   50 1    
    96   49  115 1    
    97   50   51 1    
    98   50   52 1    
    99   50  116 1    
   100   51  117 1    
   101   51  118 1    
   102   51  119 1    
   103   52   53 2    
   104   52   54 am   BACKBONE|DICT|INTERRES
   105   54   55 1    
   106   54  120 1    
   107   55   56 1    
   108   55   57 1    
   109   55  121 1    
   110   56  122 1    
   111   56  123 1    
   112   56  124 1    
   113   57   58 2    
   114   57   59 am   BACKBONE|DICT|INTERRES
   115   59   60 1    
   116   59  125 1    
   117   60   61 1    
   118   60   62 1    
   119   60  126 1    
   120   61  127 1    
   121   61  128 1    
   122   61  129 1    
   123   62   63 2    
   124   62   64 am   BACKBONE|DICT|INTERRES
   125   64   65 1    
   126   64  130 1    
   127   65   66 1    
   128   65   69 1    
   129   65  131 1    
   130   66   67 am   BACKBONE|DICT|INTERRES
   131   66   68 2    
   132   67  132 1    
   133   67  133 1    
   134   69   70 1    
   135   69  134 1    
   136   69  135 1    
   137   70   71 1    
   138   71  136 1    
   139   71  137 1    
@<TRIPOS>SUBSTRUCTURE
     1 UNK         1 GROUP             0       ****    0 ROOT    
