@<TRIPOS>MOLECULE
3R137
137   139    1
SMALL
USER_CHARGES


@<TRIPOS>ATOM
      1 CA         27.8798    1.3325    1.5676 C.3       0 UNK        -0.2020 
      2 C          27.8141    0.3688    0.3920 C.2       0 UNK         0.4855 
      3 O          27.4077    0.7648   -0.6995 O.2       0 UNK        -0.5197 
      4 N          28.2193   -0.8885    0.6068 N.am      1 UNK        -0.4892 
      5 CA         28.1988   -1.9690   -0.3880 C.3       1 UNK         0.0835 
      6 C6         29.0399   -3.1815    0.0794 C.3       12 UNK        -0.0855 
      7 S7         30.7891   -2.7263    0.3309 S.3       12 UNK        -0.2931 
      8 C8         31.6222   -3.6559   -0.9948 C.3       12 UNK         0.0378 
      9 C9         31.2041   -3.2177   -2.3940 C.ar      12 UNK        -0.0802 
     10 C10        31.4937   -1.9279   -2.8492 C.ar      12 UNK        -0.0944 
     11 C11        31.2000   -1.5581   -4.1653 C.ar      12 UNK        -0.0787 
     12 C12        30.5966   -2.4833   -5.0213 C.ar      12 UNK        -0.0862 
     13 C13        30.2777   -3.7728   -4.5760 C.ar      12 UNK        -0.0733 
     14 C14        30.5860   -4.1271   -3.2584 C.ar      12 UNK        -0.0832 
     15 C15        29.6540   -4.8342   -5.4868 C.3       12 UNK         0.0240 
     16 S16        28.9120   -4.2248   -7.0410 S.3       12 UNK        -0.2522 
     17 C17        27.4608   -3.3335   -6.4085 C.3       12 UNK        -0.0967 
     18 CA         27.0257   -2.1445   -7.3029 C.3       5 UNK         0.0660 
     19 N          25.5818   -1.9325   -7.1841 N.am      5 UNK        -0.4015 
     20 C          24.8325   -1.1520   -7.9710 C.2       4 UNK         0.4946 
     21 O          25.2721   -0.5054   -8.9207 O.2       4 UNK        -0.5353 
     22 CA         23.3378   -1.0644   -7.6168 C.3       4 UNK         0.0277 
     23 CB         22.5578   -2.2086   -8.2836 C.3       4 UNK        -0.1981 
     24 N          23.0892   -1.0756   -6.1705 N.am      4 UNK        -0.4209 
     25 C          23.4435   -0.0800   -5.3460 C.2       3 UNK         0.4942 
     26 O          24.0146    0.9440   -5.7167 O.2       3 UNK        -0.5208 
     27 CA         23.1515   -0.2739   -3.8495 C.3       3 UNK         0.0250 
     28 CB         21.6501   -0.1096   -3.5602 C.3       3 UNK        -0.1990 
     29 N          23.6319   -1.5400   -3.2800 N.am      3 UNK        -0.4232 
     30 C          24.8846   -2.0077   -3.3728 C.2       2 UNK         0.4993 
     31 O          25.7512   -1.5288   -4.1071 O.2       2 UNK        -0.5286 
     32 CA         25.2478   -3.2161   -2.5020 C.3       2 UNK         0.0209 
     33 CB         25.2963   -4.5061   -3.3358 C.3       2 UNK        -0.1931 
     34 N          26.5649   -2.9641   -1.9174 N.am      2 UNK        -0.4546 
     35 C          26.7545   -2.4013   -0.7185 C.2       1 UNK         0.5154 
     36 O          25.8523   -2.2382    0.1089 O.2       1 UNK        -0.5181 
     37 C          27.8086   -0.8504   -6.9923 C.2       5 UNK         0.5014 
     38 O          28.7352   -0.4919   -7.7256 O.2       5 UNK        -0.5248 
     39 N          27.3862   -0.1571   -5.9261 N.am      6 UNK        -0.4434 
     40 CA         27.8852    1.1511   -5.5143 C.3       6 UNK         0.0363 
     41 CB         27.3916    1.4612   -4.0947 C.3       6 UNK        -0.1936 
     42 C          27.4924    2.2691   -6.4915 C.2       6 UNK         0.5081 
     43 O          28.3398    3.1024   -6.8070 O.2       6 UNK        -0.5248 
     44 N          26.2449    2.2587   -6.9868 N.am      7 UNK        -0.4718 
     45 CA         25.7436    3.2068   -7.9913 C.3       7 UNK         0.0273 
     46 CB         24.2284    3.0313   -8.1745 C.3       7 UNK        -0.1935 
     47 C          26.4673    3.0909   -9.3432 C.2       7 UNK         0.5018 
     48 O          26.7467    4.1139   -9.9692 O.2       7 UNK        -0.5186 
     49 N          26.7969    1.8556   -9.7462 N.am      8 UNK        -0.4240 
     50 CA         27.6477    1.5547  -10.9008 C.3       8 UNK         0.0235 
     51 CB         27.4930    0.0673  -11.2600 C.3       8 UNK        -0.2000 
     52 C          29.1345    1.8912  -10.6728 C.2       8 UNK         0.4941 
     53 O          29.8862    1.9359  -11.6474 O.2       8 UNK        -0.5273 
     54 N          29.5327    2.0941   -9.4059 N.am      9 UNK        -0.4262 
     55 CA         30.8947    2.3241   -8.9121 C.3       9 UNK         0.0264 
     56 CB         31.4255    3.6947   -9.3815 C.3       9 UNK        -0.1955 
     57 C          31.8444    1.1604   -9.2487 C.2       9 UNK         0.5031 
     58 O          33.0105    1.3896   -9.5771 O.2       9 UNK        -0.5390 
     59 N          31.3277   -0.0750   -9.1634 N.am      10 UNK        -0.4204 
     60 CA         32.0133   -1.2979   -9.5953 C.3       10 UNK         0.0237 
     61 CB         31.0278   -2.4709   -9.5312 C.3       10 UNK        -0.1985 
     62 C          33.2936   -1.6234   -8.8058 C.2       10 UNK         0.4970 
     63 O          34.1774   -2.2902   -9.3452 O.2       10 UNK        -0.4914 
     64 N          33.3758   -1.1375   -7.5619 N.am      11 UNK        -0.4285 
     65 CA         34.5699   -1.2046   -6.7119 C.3       11 UNK         0.1007 
     66 C          35.6555   -0.1325   -7.0296 C.2       11 UNK         0.5703 
     67 N          35.4315    0.8066   -7.9431 N.am      11 UNK        -0.7361 
     68 O          36.7369   -0.1663   -6.4468 O.2       11 UNK        -0.4986 
     69 C69        34.1897   -1.2630   -5.2099 C.3       12 UNK        -0.0947 
     70 S70        33.3387    0.2246   -4.5622 S.3       12 UNK        -0.2240 
     71 C71        31.5594   -0.1721   -4.6855 C.3       12 UNK         0.0194 
     72 H72        28.5221    2.1783    1.3236 H         1 UNK         0.0906 
     73 H73        28.2734    0.8560    2.4653 H         1 UNK         0.0906 
     74 H74        26.8848    1.7144    1.7947 H         1 UNK         0.0906 
     75 H75        28.5398   -1.1568    1.5261 H         1 UNK         0.3140 
     76 H76        28.6410   -1.5761   -1.3073 H         1 UNK         0.1085 
     77 H77        28.9811   -3.9985   -0.6422 H         1 UNK         0.0836 
     78 H78        28.6498   -3.5818    1.0173 H         1 UNK         0.0836 
     79 H79        32.6994   -3.5166   -0.8928 H         1 UNK         0.0731 
     80 H80        31.4406   -4.7217   -0.8470 H         1 UNK         0.0731 
     81 H81        31.9790   -1.2221   -2.1888 H         1 UNK         0.1312 
     82 H82        30.3936   -2.1935   -6.0416 H         1 UNK         0.1406 
     83 H83        30.3708   -5.1299   -2.9139 H         1 UNK         0.1631 
     84 H84        28.8902   -5.3863   -4.9365 H         1 UNK         0.0717 
     85 H85        30.4293   -5.5565   -5.7453 H         1 UNK         0.0717 
     86 H86        26.6634   -4.0766   -6.3611 H         1 UNK         0.0934 
     87 H87        27.6300   -3.0148   -5.3781 H         1 UNK         0.0934 
     88 H88        27.2189   -2.3996   -8.3474 H         1 UNK         0.0739 
     89 H89        25.1351   -2.3621   -6.3878 H         1 UNK         0.3093 
     90 H90        22.9598   -0.1208   -8.0156 H         1 UNK         0.0818 
     91 H91        22.7135   -2.2075   -9.3635 H         1 UNK         0.0819 
     92 H92        22.8690   -3.1853   -7.9109 H         1 UNK         0.0819 
     93 H93        21.4855   -2.1096   -8.1136 H         1 UNK         0.0819 
     94 H94        22.6231   -1.8837   -5.7837 H         1 UNK         0.3041 
     95 H95        23.6799    0.5232   -3.3221 H         1 UNK         0.0784 
     96 H96        21.2731    0.8280   -3.9715 H         1 UNK         0.0793 
     97 H97        21.0606   -0.9172   -3.9958 H         1 UNK         0.0793 
     98 H98        21.4524   -0.0909   -2.4882 H         1 UNK         0.0793 
     99 H99        22.9859   -2.0205   -2.6701 H         1 UNK         0.3024 
    100 H100       24.4974   -3.3376   -1.7171 H         1 UNK         0.1171 
    101 H101       24.3441   -4.6876   -3.8361 H         1 UNK         0.0786 
    102 H102       26.0692   -4.4680   -4.1017 H         1 UNK         0.0786 
    103 H103       25.5002   -5.3717   -2.7053 H         1 UNK         0.0786 
    104 H104       27.3446   -3.0179   -2.5573 H         1 UNK         0.2977 
    105 H105       26.6566   -0.5658   -5.3421 H         1 UNK         0.3127 
    106 H106       28.9749    1.1008   -5.4921 H         1 UNK         0.0770 
    107 H107       26.3026    1.4957   -4.0429 H         1 UNK         0.0814 
    108 H108       27.7690    2.4238   -3.7478 H         1 UNK         0.0814 
    109 H109       27.7327    0.7044   -3.3881 H         1 UNK         0.0814 
    110 H110       25.5747    1.5849   -6.6231 H         1 UNK         0.2983 
    111 H111       25.9243    4.2145   -7.6107 H         1 UNK         0.0947 
    112 H112       23.9792    2.0303   -8.5266 H         1 UNK         0.0806 
    113 H113       23.8380    3.7412   -8.9049 H         1 UNK         0.0806 
    114 H114       23.6934    3.2021   -7.2403 H         1 UNK         0.0806 
    115 H115       26.4479    1.0597   -9.2183 H         1 UNK         0.3000 
    116 H116       27.3026    2.1521  -11.7473 H         1 UNK         0.0850 
    117 H117       26.4571   -0.1781  -11.4948 H         1 UNK         0.0810 
    118 H118       27.8116   -0.5790  -10.4409 H         1 UNK         0.0810 
    119 H119       28.0933   -0.1914  -12.1333 H         1 UNK         0.0810 
    120 H120       28.8248    2.0516   -8.6832 H         1 UNK         0.3040 
    121 H121       30.8247    2.3519   -7.8238 H         1 UNK         0.0766 
    122 H122       31.5740    3.7235  -10.4613 H         1 UNK         0.0812 
    123 H123       32.3846    3.9229   -8.9152 H         1 UNK         0.0812 
    124 H124       30.7371    4.4967   -9.1149 H         1 UNK         0.0812 
    125 H125       30.3708   -0.1781   -8.8324 H         1 UNK         0.3205 
    126 H126       32.3057   -1.1555  -10.6377 H         1 UNK         0.0754 
    127 H127       31.4874   -3.3946   -9.8855 H         1 UNK         0.0769 
    128 H128       30.1451   -2.2881  -10.1444 H         1 UNK         0.0769 
    129 H129       30.6972   -2.6399   -8.5085 H         1 UNK         0.0769 
    130 H130       32.6149   -0.5795   -7.2097 H         1 UNK         0.2981 
    131 H131       35.0596   -2.1561   -6.9278 H         1 UNK         0.0541 
    132 H132       36.1542    1.4819   -8.1333 H         1 UNK         0.3459 
    133 H133       34.5555    0.8567   -8.4529 H         1 UNK         0.3459 
    134 H134       35.0880   -1.4096   -4.6079 H         1 UNK         0.0612 
    135 H135       33.5879   -2.1522   -5.0255 H         1 UNK         0.0612 
    136 H136       31.2477   -0.0554   -5.7244 H         1 UNK         0.0624 
    137 H137       30.9997    0.5709   -4.1160 H         1 UNK         0.0624 
@<TRIPOS>BOND
     1    1    2 1    
     2    1   72 1    
     3    1   73 1    
     4    1   74 1    
     5    2    3 2    
     6    2    4 am   BACKBONE|DICT|INTERRES
     7    4    5 1    
     8    4   75 1    
     9    5    6 1    
    10    5   35 1    
    11    5   76 1    
    12    6    7 1    
    13    6   77 1    
    14    6   78 1    
    15    7    8 1    
    16    8    9 1    
    17    8   79 1    
    18    8   80 1    
    19    9   10 ar   
    20    9   14 ar   
    21   10   11 ar   
    22   10   81 1    
    23   11   12 ar   
    24   11   71 1    
    25   12   13 ar   
    26   12   82 1    
    27   13   14 ar   
    28   13   15 1    
    29   14   83 1    
    30   15   16 1    
    31   15   84 1    
    32   15   85 1    
    33   16   17 1    
    34   17   18 1    
    35   17   86 1    
    36   17   87 1    
    37   18   19 1    
    38   18   37 1    
    39   18   88 1    
    40   19   20 am   BACKBONE|DICT|INTERRES
    41   19   89 1    
    42   20   21 2    
    43   20   22 1    
    44   22   23 1    
    45   22   24 1    
    46   22   90 1    
    47   23   91 1    
    48   23   92 1    
    49   23   93 1    
    50   24   25 am   BACKBONE|DICT|INTERRES
    51   24   94 1    
    52   25   26 2    
    53   25   27 1    
    54   27   28 1    
    55   27   29 1    
    56   27   95 1    
    57   28   96 1    
    58   28   97 1    
    59   28   98 1    
    60   29   30 am   BACKBONE|DICT|INTERRES
    61   29   99 1    
    62   30   31 2    
    63   30   32 1    
    64   32   33 1    
    65   32   34 1    
    66   32  100 1    
    67   33  101 1    
    68   33  102 1    
    69   33  103 1    
    70   34   35 am   BACKBONE|DICT|INTERRES
    71   34  104 1    
    72   35   36 2    
    73   37   38 2    
    74   37   39 am   BACKBONE|DICT|INTERRES
    75   39   40 1    
    76   39  105 1    
    77   40   41 1    
    78   40   42 1    
    79   40  106 1    
    80   41  107 1    
    81   41  108 1    
    82   41  109 1    
    83   42   43 2    
    84   42   44 am   BACKBONE|DICT|INTERRES
    85   44   45 1    
    86   44  110 1    
    87   45   46 1    
    88   45   47 1    
    89   45  111 1    
    90   46  112 1    
    91   46  113 1    
    92   46  114 1    
    93   47   48 2    
    94   47   49 am   BACKBONE|DICT|INTERRES
    95   49   50 1    
    96   49  115 1    
    97   50   51 1    
    98   50   52 1    
    99   50  116 1    
   100   51  117 1    
   101   51  118 1    
   102   51  119 1    
   103   52   53 2    
   104   52   54 am   BACKBONE|DICT|INTERRES
   105   54   55 1    
   106   54  120 1    
   107   55   56 1    
   108   55   57 1    
   109   55  121 1    
   110   56  122 1    
   111   56  123 1    
   112   56  124 1    
   113   57   58 2    
   114   57   59 am   BACKBONE|DICT|INTERRES
   115   59   60 1    
   116   59  125 1    
   117   60   61 1    
   118   60   62 1    
   119   60  126 1    
   120   61  127 1    
   121   61  128 1    
   122   61  129 1    
   123   62   63 2    
   124   62   64 am   BACKBONE|DICT|INTERRES
   125   64   65 1    
   126   64  130 1    
   127   65   66 1    
   128   65   69 1    
   129   65  131 1    
   130   66   67 am   BACKBONE|DICT|INTERRES
   131   66   68 2    
   132   67  132 1    
   133   67  133 1    
   134   69   70 1    
   135   69  134 1    
   136   69  135 1    
   137   70   71 1    
   138   71  136 1    
   139   71  137 1    
@<TRIPOS>SUBSTRUCTURE
     1 UNK         1 GROUP             0       ****    0 ROOT    
