@<TRIPOS>MOLECULE
3R137
137   139    1
SMALL
USER_CHARGES


@<TRIPOS>ATOM
      1 CA         29.7969    2.8858   -3.2523 C.3       0 UNK        -0.2020 
      2 C          29.4176    1.7434   -2.3223 C.2       0 UNK         0.4855 
      3 O          29.4632    1.9149   -1.1042 O.2       0 UNK        -0.5197 
      4 N          29.0405    0.5983   -2.9084 N.am      1 UNK        -0.4892 
      5 CA         28.4909   -0.6120   -2.2770 C.3       1 UNK         0.0835 
      6 C6         29.3068   -1.1888   -1.0867 C.3       12 UNK        -0.0855 
      7 S7         31.0292   -1.6068   -1.5395 S.3       12 UNK        -0.2931 
      8 C8         30.9999   -3.4249   -1.6959 C.3       12 UNK         0.0378 
      9 C9         31.3719   -3.8561   -3.1074 C.ar      12 UNK        -0.0802 
     10 C10        32.7051   -4.1091   -3.4402 C.ar      12 UNK        -0.0944 
     11 C11        33.0542   -4.4839   -4.7409 C.ar      12 UNK        -0.0787 
     12 C12        32.0552   -4.5881   -5.7137 C.ar      12 UNK        -0.0862 
     13 C13        30.7154   -4.3276   -5.4052 C.ar      12 UNK        -0.0733 
     14 C14        30.3827   -3.9945   -4.0837 C.ar      12 UNK        -0.0832 
     15 C15        29.6939   -4.3914   -6.5487 C.3       12 UNK         0.0240 
     16 S16        27.9271   -4.2322   -6.1011 S.3       12 UNK        -0.2522 
     17 C17        27.8307   -2.5089   -5.5150 C.3       12 UNK        -0.0967 
     18 CA         27.1621   -1.5278   -6.4973 C.3       5 UNK         0.0660 
     19 N          25.8080   -1.9289   -6.8784 N.am      5 UNK        -0.4015 
     20 C          25.1735   -1.4656   -7.9646 C.2       4 UNK         0.4946 
     21 O          25.6783   -0.6670   -8.7540 O.2       4 UNK        -0.5353 
     22 CA         23.7167   -1.9131   -8.1812 C.3       4 UNK         0.0277 
     23 CB         23.6689   -3.1683   -9.0661 C.3       4 UNK        -0.1981 
     24 N          22.9816   -2.1621   -6.9362 N.am      4 UNK        -0.4209 
     25 C          22.7859   -1.2555   -5.9684 C.2       3 UNK         0.4942 
     26 O          23.1930   -0.0950   -6.0402 O.2       3 UNK        -0.5208 
     27 CA         22.0686   -1.7160   -4.6832 C.3       3 UNK         0.0250 
     28 CB         21.6024   -3.1904   -4.7090 C.3       3 UNK        -0.1990 
     29 N          22.8840   -1.4627   -3.4867 N.am      3 UNK        -0.4232 
     30 C          24.1360   -1.8914   -3.2676 C.2       2 UNK         0.4993 
     31 O          24.7815   -2.5760   -4.0667 O.2       2 UNK        -0.5286 
     32 CA         24.7638   -1.5132   -1.9189 C.3       2 UNK         0.0209 
     33 CB         24.3662   -2.5363   -0.8418 C.3       2 UNK        -0.1931 
     34 N          26.2222   -1.5080   -2.0497 N.am      2 UNK        -0.4546 
     35 C          26.9975   -0.4241   -1.9269 C.2       1 UNK         0.5154 
     36 O          26.5673    0.6756   -1.5725 O.2       1 UNK        -0.5181 
     37 C          27.2209   -0.0962   -5.9241 C.2       5 UNK         0.5014 
     38 O          28.3185    0.4580   -5.8430 O.2       5 UNK        -0.5248 
     39 N          26.0850    0.4925   -5.5183 N.am      6 UNK        -0.4434 
     40 CA         26.0211    1.9069   -5.1417 C.3       6 UNK         0.0363 
     41 CB         24.7609    2.1922   -4.3098 C.3       6 UNK        -0.1936 
     42 C          26.0732    2.7924   -6.3959 C.2       6 UNK         0.5081 
     43 O          26.8131    3.7749   -6.4148 O.2       6 UNK        -0.5248 
     44 N          25.3299    2.3917   -7.4384 N.am      7 UNK        -0.4718 
     45 CA         25.3144    3.0386   -8.7527 C.3       7 UNK         0.0273 
     46 CB         24.1365    2.4970   -9.5787 C.3       7 UNK        -0.1935 
     47 C          26.6407    2.8713   -9.5140 C.2       7 UNK         0.5018 
     48 O          27.1055    3.8297  -10.1315 O.2       7 UNK        -0.5186 
     49 N          27.2389    1.6731   -9.4362 N.am      8 UNK        -0.4240 
     50 CA         28.5358    1.3491  -10.0434 C.3       8 UNK         0.0235 
     51 CB         28.6830   -0.1779  -10.1467 C.3       8 UNK        -0.2000 
     52 C          29.7491    1.9528   -9.3072 C.2       8 UNK         0.4941 
     53 O          30.8527    1.8890   -9.8498 O.2       8 UNK        -0.5273 
     54 N          29.5334    2.5169   -8.1078 N.am      9 UNK        -0.4262 
     55 CA         30.5302    3.1105   -7.2091 C.3       9 UNK         0.0264 
     56 CB         31.2011    4.3451   -7.8496 C.3       9 UNK        -0.1955 
     57 C          31.5374    2.0670   -6.6866 C.2       9 UNK         0.5031 
     58 O          32.7490    2.2538   -6.8153 O.2       9 UNK        -0.5390 
     59 N          30.9959    0.9933   -6.0950 N.am      10 UNK        -0.4204 
     60 CA         31.6839   -0.1807   -5.5537 C.3       10 UNK         0.0237 
     61 CB         32.6380    0.1920   -4.3941 C.3       10 UNK        -0.1985 
     62 C          32.3190   -1.0185   -6.6768 C.2       10 UNK         0.4970 
     63 O          31.6317   -1.3256   -7.6528 O.2       10 UNK        -0.4914 
     64 N          33.5806   -1.4210   -6.4939 N.am      11 UNK        -0.4285 
     65 CA         34.3287   -2.3152   -7.3839 C.3       11 UNK         0.1007 
     66 C          34.5730   -1.7099   -8.7929 C.2       11 UNK         0.5703 
     67 N          34.4475   -2.5081   -9.8450 N.am      11 UNK        -0.7361 
     68 O          34.9268   -0.5410   -8.9348 O.2       11 UNK        -0.4986 
     69 C69        35.6666   -2.7740   -6.7444 C.3       12 UNK        -0.0947 
     70 S70        35.5602   -3.3077   -4.9990 S.3       12 UNK        -0.2240 
     71 C71        34.5077   -4.7923   -5.0812 C.3       12 UNK         0.0194 
     72 H72        30.8768    2.9199   -3.3929 H         1 UNK         0.0906 
     73 H73        29.4767    3.8390   -2.8322 H         1 UNK         0.0906 
     74 H74        29.3210    2.7769   -4.2254 H         1 UNK         0.0906 
     75 H75        28.9969    0.5842   -3.9211 H         1 UNK         0.3140 
     76 H76        28.5339   -1.3635   -3.0607 H         1 UNK         0.1085 
     77 H77        28.8174   -2.0764   -0.6828 H         1 UNK         0.0836 
     78 H78        29.3344   -0.4814   -0.2572 H         1 UNK         0.0836 
     79 H79        31.7046   -3.8493   -0.9791 H         1 UNK         0.0731 
     80 H80        30.0229   -3.8291   -1.4291 H         1 UNK         0.0731 
     81 H81        33.4752   -4.0110   -2.6870 H         1 UNK         0.1312 
     82 H82        32.3201   -4.8694   -6.7234 H         1 UNK         0.1406 
     83 H83        29.3576   -3.8211   -3.7972 H         1 UNK         0.1631 
     84 H84        29.8150   -5.3427   -7.0688 H         1 UNK         0.0717 
     85 H85        29.9344   -3.6133   -7.2751 H         1 UNK         0.0717 
     86 H86        27.2904   -2.5267   -4.5704 H         1 UNK         0.0934 
     87 H87        28.8391   -2.1565   -5.2960 H         1 UNK         0.0934 
     88 H88        27.7695   -1.5253   -7.4022 H         1 UNK         0.0739 
     89 H89        25.3225   -2.5390   -6.2310 H         1 UNK         0.3093 
     90 H90        23.2056   -1.1035   -8.7065 H         1 UNK         0.0818 
     91 H91        24.1903   -2.9995  -10.0096 H         1 UNK         0.0819 
     92 H92        24.1418   -4.0236   -8.5815 H         1 UNK         0.0819 
     93 H93        22.6430   -3.4440   -9.3110 H         1 UNK         0.0819 
     94 H94        22.6330   -3.0987   -6.7911 H         1 UNK         0.3041 
     95 H95        21.1805   -1.0886   -4.5944 H         1 UNK         0.0784 
     96 H96        20.9205   -3.3786   -5.5395 H         1 UNK         0.0793 
     97 H97        22.4374   -3.8873   -4.7931 H         1 UNK         0.0793 
     98 H98        21.0615   -3.4415   -3.7964 H         1 UNK         0.0793 
     99 H99        22.4440   -0.8878   -2.7815 H         1 UNK         0.3024 
    100 H100       24.3940   -0.5273   -1.6273 H         1 UNK         0.1171 
    101 H101       23.2844   -2.5628   -0.7041 H         1 UNK         0.0786 
    102 H102       24.6864   -3.5456   -1.1043 H         1 UNK         0.0786 
    103 H103       24.8083   -2.2857    0.1227 H         1 UNK         0.0786 
    104 H104       26.6174   -2.3740   -2.3881 H         1 UNK         0.2977 
    105 H105       25.1987    0.0083   -5.6188 H         1 UNK         0.3127 
    106 H106       26.8851    2.1444   -4.5177 H         1 UNK         0.0770 
    107 H107       23.8478    2.1037   -4.8980 H         1 UNK         0.0814 
    108 H108       24.7873    3.2069   -3.9113 H         1 UNK         0.0814 
    109 H109       24.6818    1.5138   -3.4607 H         1 UNK         0.0814 
    110 H110       24.7576    1.5650   -7.3310 H         1 UNK         0.2983 
    111 H111       25.1578    4.1086   -8.5974 H         1 UNK         0.0947 
    112 H112       24.2233    1.4245   -9.7565 H         1 UNK         0.0806 
    113 H113       24.0873    2.9853  -10.5529 H         1 UNK         0.0806 
    114 H114       23.1849    2.6777   -9.0784 H         1 UNK         0.0806 
    115 H115       26.7374    0.9083   -8.9898 H         1 UNK         0.3000 
    116 H116       28.5404    1.7557  -11.0571 H         1 UNK         0.0850 
    117 H117       29.5616   -0.4434  -10.7360 H         1 UNK         0.0810 
    118 H118       27.8187   -0.6354  -10.6286 H         1 UNK         0.0810 
    119 H119       28.8089   -0.6350   -9.1665 H         1 UNK         0.0810 
    120 H120       28.5845    2.5136   -7.7587 H         1 UNK         0.3040 
    121 H121       29.9749    3.4680   -6.3420 H         1 UNK         0.0766 
    122 H122       31.8209    4.0765   -8.7054 H         1 UNK         0.0812 
    123 H123       31.8466    4.8515   -7.1310 H         1 UNK         0.0812 
    124 H124       30.4592    5.0692   -8.1861 H         1 UNK         0.0812 
    125 H125       29.9792    0.9073   -6.1143 H         1 UNK         0.3205 
    126 H126       30.9039   -0.8128   -5.1275 H         1 UNK         0.0754 
    127 H127       33.0324   -0.7015   -3.9076 H         1 UNK         0.0769 
    128 H128       32.1146    0.7570   -3.6238 H         1 UNK         0.0769 
    129 H129       33.4847    0.7927   -4.7273 H         1 UNK         0.0769 
    130 H130       34.0701   -1.1217   -5.6646 H         1 UNK         0.2981 
    131 H131       33.7096   -3.2014   -7.5191 H         1 UNK         0.0541 
    132 H132       34.6216   -2.1343  -10.7647 H         1 UNK         0.3459 
    133 H133       34.1743   -3.4727   -9.7413 H         1 UNK         0.3459 
    134 H134       36.3955   -1.9618   -6.7777 H         1 UNK         0.0612 
    135 H135       36.1009   -3.5898   -7.3251 H         1 UNK         0.0612 
    136 H136       34.8862   -5.5237   -4.3659 H         1 UNK         0.0624 
    137 H137       34.5951   -5.2564   -6.0647 H         1 UNK         0.0624 
@<TRIPOS>BOND
     1    1    2 1    
     2    1   72 1    
     3    1   73 1    
     4    1   74 1    
     5    2    3 2    
     6    2    4 am   BACKBONE|DICT|INTERRES
     7    4    5 1    
     8    4   75 1    
     9    5    6 1    
    10    5   35 1    
    11    5   76 1    
    12    6    7 1    
    13    6   77 1    
    14    6   78 1    
    15    7    8 1    
    16    8    9 1    
    17    8   79 1    
    18    8   80 1    
    19    9   10 ar   
    20    9   14 ar   
    21   10   11 ar   
    22   10   81 1    
    23   11   12 ar   
    24   11   71 1    
    25   12   13 ar   
    26   12   82 1    
    27   13   14 ar   
    28   13   15 1    
    29   14   83 1    
    30   15   16 1    
    31   15   84 1    
    32   15   85 1    
    33   16   17 1    
    34   17   18 1    
    35   17   86 1    
    36   17   87 1    
    37   18   19 1    
    38   18   37 1    
    39   18   88 1    
    40   19   20 am   BACKBONE|DICT|INTERRES
    41   19   89 1    
    42   20   21 2    
    43   20   22 1    
    44   22   23 1    
    45   22   24 1    
    46   22   90 1    
    47   23   91 1    
    48   23   92 1    
    49   23   93 1    
    50   24   25 am   BACKBONE|DICT|INTERRES
    51   24   94 1    
    52   25   26 2    
    53   25   27 1    
    54   27   28 1    
    55   27   29 1    
    56   27   95 1    
    57   28   96 1    
    58   28   97 1    
    59   28   98 1    
    60   29   30 am   BACKBONE|DICT|INTERRES
    61   29   99 1    
    62   30   31 2    
    63   30   32 1    
    64   32   33 1    
    65   32   34 1    
    66   32  100 1    
    67   33  101 1    
    68   33  102 1    
    69   33  103 1    
    70   34   35 am   BACKBONE|DICT|INTERRES
    71   34  104 1    
    72   35   36 2    
    73   37   38 2    
    74   37   39 am   BACKBONE|DICT|INTERRES
    75   39   40 1    
    76   39  105 1    
    77   40   41 1    
    78   40   42 1    
    79   40  106 1    
    80   41  107 1    
    81   41  108 1    
    82   41  109 1    
    83   42   43 2    
    84   42   44 am   BACKBONE|DICT|INTERRES
    85   44   45 1    
    86   44  110 1    
    87   45   46 1    
    88   45   47 1    
    89   45  111 1    
    90   46  112 1    
    91   46  113 1    
    92   46  114 1    
    93   47   48 2    
    94   47   49 am   BACKBONE|DICT|INTERRES
    95   49   50 1    
    96   49  115 1    
    97   50   51 1    
    98   50   52 1    
    99   50  116 1    
   100   51  117 1    
   101   51  118 1    
   102   51  119 1    
   103   52   53 2    
   104   52   54 am   BACKBONE|DICT|INTERRES
   105   54   55 1    
   106   54  120 1    
   107   55   56 1    
   108   55   57 1    
   109   55  121 1    
   110   56  122 1    
   111   56  123 1    
   112   56  124 1    
   113   57   58 2    
   114   57   59 am   BACKBONE|DICT|INTERRES
   115   59   60 1    
   116   59  125 1    
   117   60   61 1    
   118   60   62 1    
   119   60  126 1    
   120   61  127 1    
   121   61  128 1    
   122   61  129 1    
   123   62   63 2    
   124   62   64 am   BACKBONE|DICT|INTERRES
   125   64   65 1    
   126   64  130 1    
   127   65   66 1    
   128   65   69 1    
   129   65  131 1    
   130   66   67 am   BACKBONE|DICT|INTERRES
   131   66   68 2    
   132   67  132 1    
   133   67  133 1    
   134   69   70 1    
   135   69  134 1    
   136   69  135 1    
   137   70   71 1    
   138   71  136 1    
   139   71  137 1    
@<TRIPOS>SUBSTRUCTURE
     1 UNK         1 GROUP             0       ****    0 ROOT    
