@<TRIPOS>MOLECULE
3R137
137   139    1
SMALL
USER_CHARGES


@<TRIPOS>ATOM
      1 CA         22.6240   -4.6457   -3.7620 C.3       0 UNK        -0.2020 
      2 C          23.5239   -4.2278   -2.6094 C.2       0 UNK         0.4855 
      3 O          23.1304   -3.3884   -1.7985 O.2       0 UNK        -0.5197 
      4 N          24.7356   -4.7944   -2.5395 N.am      1 UNK        -0.4892 
      5 CA         25.7834   -4.4783   -1.5615 C.3       1 UNK         0.0835 
      6 C6         27.0180   -5.4125   -1.7068 C.3       12 UNK        -0.0855 
      7 S7         27.5932   -5.6784   -3.4281 S.3       12 UNK        -0.2931 
      8 C8         29.3727   -5.9887   -3.2021 C.3       12 UNK         0.0378 
      9 C9         30.2268   -4.7665   -3.5182 C.ar      12 UNK        -0.0802 
     10 C10        30.9192   -4.6871   -4.7329 C.ar      12 UNK        -0.0944 
     11 C11        31.7770   -3.6135   -4.9954 C.ar      12 UNK        -0.0787 
     12 C12        31.9360   -2.6144   -4.0321 C.ar      12 UNK        -0.0862 
     13 C13        31.2182   -2.6573   -2.8347 C.ar      12 UNK        -0.0733 
     14 C14        30.3689   -3.7393   -2.5795 C.ar      12 UNK        -0.0832 
     15 C15        31.3787   -1.5394   -1.8134 C.3       12 UNK         0.0240 
     16 S16        30.8825    0.0834   -2.4810 S.3       12 UNK        -0.2522 
     17 C17        29.1124   -0.1801   -2.8271 C.3       12 UNK        -0.0967 
     18 CA         28.7656   -0.1141   -4.3383 C.3       5 UNK         0.0660 
     19 N          27.5325   -0.8553   -4.6343 N.am      5 UNK        -0.4015 
     20 C          26.8918   -0.9214   -5.8111 C.2       4 UNK         0.4946 
     21 O          27.2675   -0.3493   -6.8306 O.2       4 UNK        -0.5353 
     22 CA         25.5666   -1.6941   -5.8454 C.3       4 UNK         0.0277 
     23 CB         25.8041   -3.2102   -5.9072 C.3       4 UNK        -0.1981 
     24 N          24.7398   -1.3524   -4.6885 N.am      4 UNK        -0.4209 
     25 C          24.0243   -0.2220   -4.5885 C.2       3 UNK         0.4942 
     26 O          23.8888    0.5867   -5.5062 O.2       3 UNK        -0.5208 
     27 CA         23.3674    0.0759   -3.2299 C.3       3 UNK         0.0250 
     28 CB         21.9231   -0.4483   -3.1964 C.3       3 UNK        -0.1990 
     29 N          24.1227   -0.4736   -2.1005 N.am      3 UNK        -0.4232 
     30 C          25.3084    0.0048   -1.6919 C.2       2 UNK         0.4993 
     31 O          25.8704    0.9709   -2.2106 O.2       2 UNK        -0.5286 
     32 CA         26.0129   -0.7533   -0.5496 C.3       2 UNK         0.0209 
     33 CB         25.5512   -0.2180    0.8149 C.3       2 UNK        -0.1931 
     34 N          25.8224   -2.2091   -0.5955 N.am      2 UNK        -0.4546 
     35 C          26.1652   -2.9870   -1.6323 C.2       1 UNK         0.5154 
     36 O          26.6999   -2.5505   -2.6497 O.2       1 UNK        -0.5181 
     37 C          28.7200    1.3481   -4.8309 C.2       5 UNK         0.5014 
     38 O          29.6695    1.8197   -5.4564 O.2       5 UNK        -0.5248 
     39 N          27.5922    2.0211   -4.5682 N.am      6 UNK        -0.4434 
     40 CA         27.3277    3.3995   -4.9764 C.3       6 UNK         0.0363 
     41 CB         26.1321    3.9202   -4.1604 C.3       6 UNK        -0.1936 
     42 C          27.0662    3.5966   -6.4847 C.2       6 UNK         0.5081 
     43 O          27.0804    4.7466   -6.9270 O.2       6 UNK        -0.5248 
     44 N          26.7887    2.5223   -7.2391 N.am      7 UNK        -0.4718 
     45 CA         26.2847    2.5975   -8.6153 C.3       7 UNK         0.0273 
     46 CB         24.8645    2.0072   -8.6493 C.3       7 UNK        -0.1935 
     47 C          27.1690    1.8838   -9.6486 C.2       7 UNK         0.5018 
     48 O          27.2765    2.3719  -10.7751 O.2       7 UNK        -0.5186 
     49 N          27.7559    0.7351   -9.2891 N.am      8 UNK        -0.4240 
     50 CA         28.4251   -0.2027  -10.1974 C.3       8 UNK         0.0235 
     51 CB         28.4122   -1.6065   -9.5619 C.3       8 UNK        -0.2000 
     52 C          29.8343    0.2372  -10.6428 C.2       8 UNK         0.4941 
     53 O          30.7872   -0.5313  -10.4996 O.2       8 UNK        -0.5273 
     54 N          29.9270    1.4493  -11.2096 N.am      9 UNK        -0.4262 
     55 CA         31.0719    2.0527  -11.9046 C.3       9 UNK         0.0264 
     56 CB         31.1498    1.5020  -13.3460 C.3       9 UNK        -0.1955 
     57 C          32.4002    1.9268  -11.1341 C.2       9 UNK         0.5031 
     58 O          32.6553    2.7288  -10.2340 O.2       9 UNK        -0.5390 
     59 N          33.2022    0.9101  -11.4839 N.am      10 UNK        -0.4204 
     60 CA         34.4860    0.5582  -10.8712 C.3       10 UNK         0.0237 
     61 CB         35.0966   -0.6288  -11.6344 C.3       10 UNK        -0.1985 
     62 C          34.4187    0.2497   -9.3633 C.2       10 UNK         0.4970 
     63 O          35.4429    0.3801   -8.6912 O.2       10 UNK        -0.4914 
     64 N          33.2374   -0.1241   -8.8504 N.am      11 UNK        -0.4285 
     65 CA         32.9704   -0.2246   -7.4074 C.3       11 UNK         0.1007 
     66 C          33.0053    1.1373   -6.6500 C.2       11 UNK         0.5703 
     67 N          32.9029    2.2833   -7.3161 N.am      11 UNK        -0.7361 
     68 O          33.1628    1.1500   -5.4319 O.2       11 UNK        -0.4986 
     69 C69        31.6516   -0.9805   -7.1071 C.3       12 UNK        -0.0947 
     70 S70        31.6668   -2.7238   -7.6470 S.3       12 UNK        -0.2240 
     71 C71        32.5693   -3.5523   -6.2956 C.3       12 UNK         0.0194 
     72 H72        21.6643   -4.9939   -3.3810 H         1 UNK         0.0906 
     73 H73        22.4422   -3.7982   -4.4224 H         1 UNK         0.0906 
     74 H74        23.0650   -5.4480   -4.3534 H         1 UNK         0.0906 
     75 H75        25.0223   -5.4496   -3.2541 H         1 UNK         0.3140 
     76 H76        25.3565   -4.6606   -0.5729 H         1 UNK         0.1085 
     77 H77        26.7664   -6.3943   -1.3027 H         1 UNK         0.0836 
     78 H78        27.8430   -5.0523   -1.0899 H         1 UNK         0.0836 
     79 H79        29.6578   -6.8177   -3.8518 H         1 UNK         0.0731 
     80 H80        29.5720   -6.3307   -2.1855 H         1 UNK         0.0731 
     81 H81        30.8101   -5.4740   -5.4668 H         1 UNK         0.1312 
     82 H82        32.6080   -1.7873   -4.2189 H         1 UNK         0.1406 
     83 H83        29.8273   -3.7902   -1.6453 H         1 UNK         0.1631 
     84 H84        32.4236   -1.4883   -1.5045 H         1 UNK         0.0717 
     85 H85        30.8007   -1.7452   -0.9110 H         1 UNK         0.0717 
     86 H86        28.8361   -1.1529   -2.4219 H         1 UNK         0.0934 
     87 H87        28.5358    0.5474   -2.2537 H         1 UNK         0.0934 
     88 H88        29.5481   -0.6281   -4.8953 H         1 UNK         0.0739 
     89 H89        27.1669   -1.4217   -3.8681 H         1 UNK         0.3093 
     90 H90        25.0343   -1.4044   -6.7544 H         1 UNK         0.0818 
     91 H91        26.3924   -3.4741   -6.7872 H         1 UNK         0.0819 
     92 H92        26.3478   -3.5728   -5.0363 H         1 UNK         0.0819 
     93 H93        24.8640   -3.7581   -5.9688 H         1 UNK         0.0819 
     94 H94        24.8518   -1.9283   -3.8655 H         1 UNK         0.3041 
     95 H95        23.3343    1.1618   -3.1152 H         1 UNK         0.0784 
     96 H96        21.3302   -0.0042   -3.9973 H         1 UNK         0.0793 
     97 H97        21.8792   -1.5299   -3.3226 H         1 UNK         0.0793 
     98 H98        21.4323   -0.2002   -2.2552 H         1 UNK         0.0793 
     99 H99        23.7490   -1.3076   -1.6599 H         1 UNK         0.3024 
    100 H100       27.0829   -0.5602   -0.6434 H         1 UNK         0.1171 
    101 H101       26.1142   -0.6715    1.6310 H         1 UNK         0.0786 
    102 H102       25.7013    0.8608    0.8816 H         1 UNK         0.0786 
    103 H103       24.4918   -0.4110    0.9884 H         1 UNK         0.0786 
    104 H104       25.3458   -2.6269    0.1913 H         1 UNK         0.2977 
    105 H105       26.8766    1.5666   -4.0100 H         1 UNK         0.3127 
    106 H106       28.2031    4.0006   -4.7208 H         1 UNK         0.0770 
    107 H107       25.2270    3.3461   -4.3654 H         1 UNK         0.0814 
    108 H108       25.9185    4.9637   -4.3964 H         1 UNK         0.0814 
    109 H109       26.3272    3.8649   -3.0891 H         1 UNK         0.0814 
    110 H110       26.8586    1.5963   -6.8286 H         1 UNK         0.2983 
    111 H111       26.2138    3.6380   -8.9404 H         1 UNK         0.0947 
    112 H112       24.4466    2.0420   -9.6565 H         1 UNK         0.0806 
    113 H113       24.1893    2.5641   -7.9989 H         1 UNK         0.0806 
    114 H114       24.8528    0.9654   -8.3240 H         1 UNK         0.0806 
    115 H115       27.6219    0.3977   -8.3348 H         1 UNK         0.3000 
    116 H116       27.8283   -0.2645  -11.1100 H         1 UNK         0.0850 
    117 H117       28.8642   -2.3462  -10.2241 H         1 UNK         0.0810 
    118 H118       27.3948   -1.9381   -9.3539 H         1 UNK         0.0810 
    119 H119       28.9654   -1.6274   -8.6230 H         1 UNK         0.0810 
    120 H120       29.0691    1.9969  -11.2192 H         1 UNK         0.3040 
    121 H121       30.8622    3.1214  -11.9735 H         1 UNK         0.0766 
    122 H122       30.2596    1.7744  -13.9134 H         1 UNK         0.0812 
    123 H123       31.2297    0.4145  -13.3716 H         1 UNK         0.0812 
    124 H124       32.0061    1.9141  -13.8824 H         1 UNK         0.0812 
    125 H125       32.8621    0.2810  -12.1967 H         1 UNK         0.3205 
    126 H126       35.1462    1.4196  -10.9911 H         1 UNK         0.0754 
    127 H127       35.2469   -0.3904  -12.6878 H         1 UNK         0.0769 
    128 H128       34.4619   -1.5143  -11.5755 H         1 UNK         0.0769 
    129 H129       36.0708   -0.8984  -11.2239 H         1 UNK         0.0769 
    130 H130       32.4370   -0.2394   -9.4663 H         1 UNK         0.2981 
    131 H131       33.7841   -0.8114   -6.9781 H         1 UNK         0.0541 
    132 H132       32.7959    2.3025   -8.3255 H         1 UNK         0.3459 
    133 H133       32.9314    3.1482   -6.8015 H         1 UNK         0.3459 
    134 H134       31.4254   -0.9509   -6.0444 H         1 UNK         0.0612 
    135 H135       30.8154   -0.4774   -7.5952 H         1 UNK         0.0612 
    136 H136       33.5242   -3.0506   -6.1344 H         1 UNK         0.0624 
    137 H137       32.8157   -4.5649   -6.6182 H         1 UNK         0.0624 
@<TRIPOS>BOND
     1    1    2 1    
     2    1   72 1    
     3    1   73 1    
     4    1   74 1    
     5    2    3 2    
     6    2    4 am   BACKBONE|DICT|INTERRES
     7    4    5 1    
     8    4   75 1    
     9    5    6 1    
    10    5   35 1    
    11    5   76 1    
    12    6    7 1    
    13    6   77 1    
    14    6   78 1    
    15    7    8 1    
    16    8    9 1    
    17    8   79 1    
    18    8   80 1    
    19    9   10 ar   
    20    9   14 ar   
    21   10   11 ar   
    22   10   81 1    
    23   11   12 ar   
    24   11   71 1    
    25   12   13 ar   
    26   12   82 1    
    27   13   14 ar   
    28   13   15 1    
    29   14   83 1    
    30   15   16 1    
    31   15   84 1    
    32   15   85 1    
    33   16   17 1    
    34   17   18 1    
    35   17   86 1    
    36   17   87 1    
    37   18   19 1    
    38   18   37 1    
    39   18   88 1    
    40   19   20 am   BACKBONE|DICT|INTERRES
    41   19   89 1    
    42   20   21 2    
    43   20   22 1    
    44   22   23 1    
    45   22   24 1    
    46   22   90 1    
    47   23   91 1    
    48   23   92 1    
    49   23   93 1    
    50   24   25 am   BACKBONE|DICT|INTERRES
    51   24   94 1    
    52   25   26 2    
    53   25   27 1    
    54   27   28 1    
    55   27   29 1    
    56   27   95 1    
    57   28   96 1    
    58   28   97 1    
    59   28   98 1    
    60   29   30 am   BACKBONE|DICT|INTERRES
    61   29   99 1    
    62   30   31 2    
    63   30   32 1    
    64   32   33 1    
    65   32   34 1    
    66   32  100 1    
    67   33  101 1    
    68   33  102 1    
    69   33  103 1    
    70   34   35 am   BACKBONE|DICT|INTERRES
    71   34  104 1    
    72   35   36 2    
    73   37   38 2    
    74   37   39 am   BACKBONE|DICT|INTERRES
    75   39   40 1    
    76   39  105 1    
    77   40   41 1    
    78   40   42 1    
    79   40  106 1    
    80   41  107 1    
    81   41  108 1    
    82   41  109 1    
    83   42   43 2    
    84   42   44 am   BACKBONE|DICT|INTERRES
    85   44   45 1    
    86   44  110 1    
    87   45   46 1    
    88   45   47 1    
    89   45  111 1    
    90   46  112 1    
    91   46  113 1    
    92   46  114 1    
    93   47   48 2    
    94   47   49 am   BACKBONE|DICT|INTERRES
    95   49   50 1    
    96   49  115 1    
    97   50   51 1    
    98   50   52 1    
    99   50  116 1    
   100   51  117 1    
   101   51  118 1    
   102   51  119 1    
   103   52   53 2    
   104   52   54 am   BACKBONE|DICT|INTERRES
   105   54   55 1    
   106   54  120 1    
   107   55   56 1    
   108   55   57 1    
   109   55  121 1    
   110   56  122 1    
   111   56  123 1    
   112   56  124 1    
   113   57   58 2    
   114   57   59 am   BACKBONE|DICT|INTERRES
   115   59   60 1    
   116   59  125 1    
   117   60   61 1    
   118   60   62 1    
   119   60  126 1    
   120   61  127 1    
   121   61  128 1    
   122   61  129 1    
   123   62   63 2    
   124   62   64 am   BACKBONE|DICT|INTERRES
   125   64   65 1    
   126   64  130 1    
   127   65   66 1    
   128   65   69 1    
   129   65  131 1    
   130   66   67 am   BACKBONE|DICT|INTERRES
   131   66   68 2    
   132   67  132 1    
   133   67  133 1    
   134   69   70 1    
   135   69  134 1    
   136   69  135 1    
   137   70   71 1    
   138   71  136 1    
   139   71  137 1    
@<TRIPOS>SUBSTRUCTURE
     1 UNK         1 GROUP             0       ****    0 ROOT    
