@<TRIPOS>MOLECULE
3R137
137   139    1
SMALL
USER_CHARGES


@<TRIPOS>ATOM
      1 CA         27.6033   -3.0695   -8.1361 C.3       0 UNK        -0.2020 
      2 C          27.0829   -3.7367   -6.8731 C.2       0 UNK         0.4855 
      3 O          25.8743   -3.7322   -6.6268 O.2       0 UNK        -0.5197 
      4 N          27.9965   -4.3009   -6.0721 N.am      1 UNK        -0.4892 
      5 CA         27.7354   -4.9554   -4.7846 C.3       1 UNK         0.0835 
      6 C6         28.9840   -5.7159   -4.2594 C.3       12 UNK        -0.0855 
      7 S7         30.5323   -4.7443   -4.2423 S.3       12 UNK        -0.2931 
      8 C8         30.6438   -4.1622   -2.5174 C.3       12 UNK         0.0378 
      9 C9         30.5408   -2.6449   -2.4237 C.ar      12 UNK        -0.0802 
     10 C10        31.5613   -1.8412   -2.9397 C.ar      12 UNK        -0.0944 
     11 C11        31.5010   -0.4451   -2.8375 C.ar      12 UNK        -0.0787 
     12 C12        30.3912    0.1413   -2.2207 C.ar      12 UNK        -0.0862 
     13 C13        29.3575   -0.6491   -1.7065 C.ar      12 UNK        -0.0733 
     14 C14        29.4446   -2.0410   -1.8026 C.ar      12 UNK        -0.0832 
     15 C15        28.1558   -0.0037   -1.0280 C.3       12 UNK         0.0240 
     16 S16        26.6874    0.0458   -2.1080 S.3       12 UNK        -0.2522 
     17 C17        27.2110    1.2046   -3.4170 C.3       12 UNK        -0.0967 
     18 CA         27.4587    0.4871   -4.7774 C.3       5 UNK         0.0660 
     19 N          26.2506   -0.1572   -5.3072 N.am      5 UNK        -0.4015 
     20 C          25.1944    0.4772   -5.8428 C.2       4 UNK         0.4946 
     21 O          25.0843    1.7035   -5.8940 O.2       4 UNK        -0.5353 
     22 CA         24.0732   -0.3908   -6.4312 C.3       4 UNK         0.0277 
     23 CB         24.3916   -0.7826   -7.8826 C.3       4 UNK        -0.1981 
     24 N          23.8249   -1.5891   -5.6271 N.am      4 UNK        -0.4209 
     25 C          23.0455   -1.5837   -4.5347 C.2       3 UNK         0.4942 
     26 O          22.4356   -0.5941   -4.1279 O.2       3 UNK        -0.5208 
     27 CA         22.9554   -2.8865   -3.7404 C.3       3 UNK         0.0250 
     28 CB         22.5601   -4.0935   -4.6131 C.3       3 UNK        -0.1990 
     29 N          24.2441   -3.1144   -3.1052 N.am      3 UNK        -0.4232 
     30 C          24.4599   -3.7305   -1.9412 C.2       2 UNK         0.4993 
     31 O          23.5661   -4.1925   -1.2295 O.2       2 UNK        -0.5286 
     32 CA         25.9404   -3.8871   -1.5423 C.3       2 UNK         0.0209 
     33 CB         26.1310   -4.6402   -0.2129 C.3       2 UNK        -0.1931 
     34 N          26.6949   -4.5760   -2.5957 N.am      2 UNK        -0.4546 
     35 C          27.1299   -4.0054   -3.7282 C.2       1 UNK         0.5154 
     36 O          27.0074   -2.7986   -3.9567 O.2       1 UNK        -0.5181 
     37 C          28.0983    1.3847   -5.8656 C.2       5 UNK         0.5014 
     38 O          28.2776    0.9253   -6.9969 O.2       5 UNK        -0.5248 
     39 N          28.3799    2.6533   -5.5343 N.am      6 UNK        -0.4434 
     40 CA         28.9754    3.6577   -6.4185 C.3       6 UNK         0.0363 
     41 CB         29.2256    4.9462   -5.6192 C.3       6 UNK        -0.1936 
     42 C          28.1674    3.9662   -7.6931 C.2       6 UNK         0.5081 
     43 O          28.7642    4.4184   -8.6706 O.2       6 UNK        -0.5248 
     44 N          26.8532    3.6865   -7.7004 N.am      7 UNK        -0.4718 
     45 CA         25.9812    3.8571   -8.8711 C.3       7 UNK         0.0273 
     46 CB         24.5108    3.6826   -8.4600 C.3       7 UNK        -0.1935 
     47 C          26.3287    2.9203  -10.0443 C.2       7 UNK         0.5018 
     48 O          25.9761    3.2344  -11.1816 O.2       7 UNK        -0.5186 
     49 N          27.0333    1.8171   -9.7594 N.am      8 UNK        -0.4240 
     50 CA         27.6308    0.9229  -10.7511 C.3       8 UNK         0.0235 
     51 CB         26.8286   -0.3889  -10.8091 C.3       8 UNK        -0.2000 
     52 C          29.1229    0.7120  -10.4374 C.2       8 UNK         0.4941 
     53 O          29.6535   -0.3743  -10.6789 O.2       8 UNK        -0.5273 
     54 N          29.7720    1.7544   -9.8929 N.am      9 UNK        -0.4262 
     55 CA         31.1629    1.8419   -9.4306 C.3       9 UNK         0.0264 
     56 CB         32.1647    1.6456  -10.5858 C.3       9 UNK        -0.1955 
     57 C          31.4877    0.9258   -8.2384 C.2       9 UNK         0.5031 
     58 O          31.9133    1.4305   -7.1983 O.2       9 UNK        -0.5390 
     59 N          31.3014   -0.3895   -8.4188 N.am      10 UNK        -0.4204 
     60 CA         31.5177   -1.5090   -7.4901 C.3       10 UNK         0.0237 
     61 CB         30.5535   -1.4231   -6.2939 C.3       10 UNK        -0.1985 
     62 C          32.9744   -1.6983   -7.0232 C.2       10 UNK         0.4970 
     63 O          33.5194   -2.7923   -7.1706 O.2       10 UNK        -0.4914 
     64 N          33.5734   -0.6344   -6.4843 N.am      11 UNK        -0.4285 
     65 CA         34.9623   -0.5558   -6.0107 C.3       11 UNK         0.1007 
     66 C          35.9820   -0.1929   -7.1300 C.2       11 UNK         0.5703 
     67 N          35.5608    0.0726   -8.3616 N.am      11 UNK        -0.7361 
     68 O          37.1850   -0.1681   -6.8804 O.2       11 UNK        -0.4986 
     69 C69        35.0775    0.4062   -4.7955 C.3       12 UNK        -0.0947 
     70 S70        34.2692   -0.2672   -3.3058 S.3       12 UNK        -0.2240 
     71 C71        32.5932    0.4484   -3.4254 C.3       12 UNK         0.0194 
     72 H72        28.5985   -3.4249   -8.4025 H         1 UNK         0.0906 
     73 H73        26.9379   -3.2739   -8.9744 H         1 UNK         0.0906 
     74 H74        27.6562   -1.9914   -7.9894 H         1 UNK         0.0906 
     75 H75        28.9761   -4.2281   -6.3067 H         1 UNK         0.3140 
     76 H76        26.9596   -5.6999   -4.9782 H         1 UNK         0.1085 
     77 H77        28.8100   -6.1615   -3.2788 H         1 UNK         0.0836 
     78 H78        29.1652   -6.5681   -4.9163 H         1 UNK         0.0836 
     79 H79        29.8814   -4.6395   -1.9005 H         1 UNK         0.0731 
     80 H80        31.6038   -4.4766   -2.1056 H         1 UNK         0.0731 
     81 H81        32.3996   -2.3137   -3.4324 H         1 UNK         0.1312 
     82 H82        30.3309    1.2181   -2.1432 H         1 UNK         0.1406 
     83 H83        28.6536   -2.6537   -1.3965 H         1 UNK         0.1631 
     84 H84        28.3954    1.0074   -0.6952 H         1 UNK         0.0717 
     85 H85        27.9062   -0.5656   -0.1269 H         1 UNK         0.0717 
     86 H86        26.4378    1.9687   -3.5166 H         1 UNK         0.0934 
     87 H87        28.1076    1.7205   -3.0728 H         1 UNK         0.0934 
     88 H88        28.1781   -0.3148   -4.6024 H         1 UNK         0.0739 
     89 H89        26.2647   -1.1684   -5.2740 H         1 UNK         0.3093 
     90 H90        23.1664    0.2183   -6.4521 H         1 UNK         0.0818 
     91 H91        23.5659   -1.3316   -8.3351 H         1 UNK         0.0819 
     92 H92        24.5687    0.1015   -8.4967 H         1 UNK         0.0819 
     93 H93        25.2813   -1.4054   -7.9473 H         1 UNK         0.0819 
     94 H94        24.3078   -2.4385   -5.9032 H         1 UNK         0.3041 
     95 H95        22.1924   -2.7496   -2.9707 H         1 UNK         0.0784 
     96 H96        21.6368   -3.8955   -5.1591 H         1 UNK         0.0793 
     97 H97        23.3297   -4.3428   -5.3446 H         1 UNK         0.0793 
     98 H98        22.3894   -4.9791   -4.0007 H         1 UNK         0.0793 
     99 H99        25.0605   -2.7547   -3.5922 H         1 UNK         0.3024 
    100 H100       26.3366   -2.8779   -1.4135 H         1 UNK         0.1171 
    101 H101       25.6106   -4.1330    0.6008 H         1 UNK         0.0786 
    102 H102       27.1840   -4.6957    0.0639 H         1 UNK         0.0786 
    103 H103       25.7426   -5.6581   -0.2648 H         1 UNK         0.0786 
    104 H104       26.7832   -5.5766   -2.4904 H         1 UNK         0.2977 
    105 H105       28.1586    2.9641   -4.6003 H         1 UNK         0.3127 
    106 H106       29.9418    3.2674   -6.7419 H         1 UNK         0.0770 
    107 H107       28.2967    5.3716   -5.2374 H         1 UNK         0.0814 
    108 H108       29.6992    5.7062   -6.2427 H         1 UNK         0.0814 
    109 H109       29.8894    4.7676   -4.7731 H         1 UNK         0.0814 
    110 H110       26.4337    3.2653   -6.8792 H         1 UNK         0.2983 
    111 H111       26.1121    4.8808   -9.2287 H         1 UNK         0.0947 
    112 H112       23.8454    3.9442   -9.2838 H         1 UNK         0.0806 
    113 H113       24.2507    4.3232   -7.6173 H         1 UNK         0.0806 
    114 H114       24.2873    2.6526   -8.1829 H         1 UNK         0.0806 
    115 H115       27.2921    1.6393   -8.7930 H         1 UNK         0.3000 
    116 H116       27.5997    1.3812  -11.7418 H         1 UNK         0.0850 
    117 H117       27.2463   -1.0782  -11.5441 H         1 UNK         0.0810 
    118 H118       26.8261   -0.8942   -9.8462 H         1 UNK         0.0810 
    119 H119       25.7920   -0.2047  -11.0914 H         1 UNK         0.0810 
    120 H120       29.2305    2.5944   -9.7210 H         1 UNK         0.3040 
    121 H121       31.2825    2.8663   -9.0735 H         1 UNK         0.0766 
    122 H122       32.1099    0.6461  -11.0178 H         1 UNK         0.0812 
    123 H123       33.1889    1.7936  -10.2409 H         1 UNK         0.0812 
    124 H124       31.9877    2.3637  -11.3864 H         1 UNK         0.0812 
    125 H125       30.8906   -0.6442   -9.3160 H         1 UNK         0.3205 
    126 H126       31.2553   -2.4076   -8.0506 H         1 UNK         0.0754 
    127 H127       30.7034   -2.2558   -5.6104 H         1 UNK         0.0769 
    128 H128       29.5156   -1.4568   -6.6184 H         1 UNK         0.0769 
    129 H129       30.6873   -0.5059   -5.7222 H         1 UNK         0.0769 
    130 H130       33.0467    0.2373   -6.4875 H         1 UNK         0.2981 
    131 H131       35.2593   -1.5498   -5.6713 H         1 UNK         0.0541 
    132 H132       34.5798    0.0399   -8.5816 H         1 UNK         0.3459 
    133 H133       36.2355    0.2980   -9.0755 H         1 UNK         0.3459 
    134 H134       34.6661    1.3892   -5.0320 H         1 UNK         0.0612 
    135 H135       36.1233    0.5717   -4.5303 H         1 UNK         0.0612 
    136 H136       32.6052    1.4156   -2.9209 H         1 UNK         0.0624 
    137 H137       32.3429    0.6516   -4.4653 H         1 UNK         0.0624 
@<TRIPOS>BOND
     1    1    2 1    
     2    1   72 1    
     3    1   73 1    
     4    1   74 1    
     5    2    3 2    
     6    2    4 am   BACKBONE|DICT|INTERRES
     7    4    5 1    
     8    4   75 1    
     9    5    6 1    
    10    5   35 1    
    11    5   76 1    
    12    6    7 1    
    13    6   77 1    
    14    6   78 1    
    15    7    8 1    
    16    8    9 1    
    17    8   79 1    
    18    8   80 1    
    19    9   10 ar   
    20    9   14 ar   
    21   10   11 ar   
    22   10   81 1    
    23   11   12 ar   
    24   11   71 1    
    25   12   13 ar   
    26   12   82 1    
    27   13   14 ar   
    28   13   15 1    
    29   14   83 1    
    30   15   16 1    
    31   15   84 1    
    32   15   85 1    
    33   16   17 1    
    34   17   18 1    
    35   17   86 1    
    36   17   87 1    
    37   18   19 1    
    38   18   37 1    
    39   18   88 1    
    40   19   20 am   BACKBONE|DICT|INTERRES
    41   19   89 1    
    42   20   21 2    
    43   20   22 1    
    44   22   23 1    
    45   22   24 1    
    46   22   90 1    
    47   23   91 1    
    48   23   92 1    
    49   23   93 1    
    50   24   25 am   BACKBONE|DICT|INTERRES
    51   24   94 1    
    52   25   26 2    
    53   25   27 1    
    54   27   28 1    
    55   27   29 1    
    56   27   95 1    
    57   28   96 1    
    58   28   97 1    
    59   28   98 1    
    60   29   30 am   BACKBONE|DICT|INTERRES
    61   29   99 1    
    62   30   31 2    
    63   30   32 1    
    64   32   33 1    
    65   32   34 1    
    66   32  100 1    
    67   33  101 1    
    68   33  102 1    
    69   33  103 1    
    70   34   35 am   BACKBONE|DICT|INTERRES
    71   34  104 1    
    72   35   36 2    
    73   37   38 2    
    74   37   39 am   BACKBONE|DICT|INTERRES
    75   39   40 1    
    76   39  105 1    
    77   40   41 1    
    78   40   42 1    
    79   40  106 1    
    80   41  107 1    
    81   41  108 1    
    82   41  109 1    
    83   42   43 2    
    84   42   44 am   BACKBONE|DICT|INTERRES
    85   44   45 1    
    86   44  110 1    
    87   45   46 1    
    88   45   47 1    
    89   45  111 1    
    90   46  112 1    
    91   46  113 1    
    92   46  114 1    
    93   47   48 2    
    94   47   49 am   BACKBONE|DICT|INTERRES
    95   49   50 1    
    96   49  115 1    
    97   50   51 1    
    98   50   52 1    
    99   50  116 1    
   100   51  117 1    
   101   51  118 1    
   102   51  119 1    
   103   52   53 2    
   104   52   54 am   BACKBONE|DICT|INTERRES
   105   54   55 1    
   106   54  120 1    
   107   55   56 1    
   108   55   57 1    
   109   55  121 1    
   110   56  122 1    
   111   56  123 1    
   112   56  124 1    
   113   57   58 2    
   114   57   59 am   BACKBONE|DICT|INTERRES
   115   59   60 1    
   116   59  125 1    
   117   60   61 1    
   118   60   62 1    
   119   60  126 1    
   120   61  127 1    
   121   61  128 1    
   122   61  129 1    
   123   62   63 2    
   124   62   64 am   BACKBONE|DICT|INTERRES
   125   64   65 1    
   126   64  130 1    
   127   65   66 1    
   128   65   69 1    
   129   65  131 1    
   130   66   67 am   BACKBONE|DICT|INTERRES
   131   66   68 2    
   132   67  132 1    
   133   67  133 1    
   134   69   70 1    
   135   69  134 1    
   136   69  135 1    
   137   70   71 1    
   138   71  136 1    
   139   71  137 1    
@<TRIPOS>SUBSTRUCTURE
     1 UNK         1 GROUP             0       ****    0 ROOT    
