@<TRIPOS>MOLECULE
3R137
137   139    1
SMALL
USER_CHARGES


@<TRIPOS>ATOM
      1 CA         30.1998    0.7168   -1.6736 C.3       0 UNK        -0.2020 
      2 C          29.1977   -0.3899   -1.3822 C.2       0 UNK         0.4855 
      3 O          28.4031   -0.2614   -0.4510 O.2       0 UNK        -0.5197 
      4 N          29.2386   -1.4713   -2.1721 N.am      1 UNK        -0.4892 
      5 CA         28.4383   -2.6966   -2.0461 C.3       1 UNK         0.0835 
      6 C6         28.7445   -3.5303   -0.7629 C.3       12 UNK        -0.0855 
      7 S7         30.5162   -3.8651   -0.4747 S.3       12 UNK        -0.2931 
      8 C8         30.7885   -5.3898   -1.4348 C.3       12 UNK         0.0378 
      9 C9         30.8020   -5.1114   -2.9303 C.ar      12 UNK        -0.0802 
     10 C10        31.7596   -4.2456   -3.4676 C.ar      12 UNK        -0.0944 
     11 C11        31.7595   -3.9423   -4.8302 C.ar      12 UNK        -0.0787 
     12 C12        30.8142   -4.5407   -5.6655 C.ar      12 UNK        -0.0862 
     13 C13        29.8366   -5.3936   -5.1383 C.ar      12 UNK        -0.0733 
     14 C14        29.8441   -5.6875   -3.7713 C.ar      12 UNK        -0.0832 
     15 C15        28.7417   -5.9558   -6.0383 C.3       12 UNK         0.0240 
     16 S16        27.1998   -4.9809   -5.9208 S.3       12 UNK        -0.2522 
     17 C17        27.8336   -3.3106   -6.2717 C.3       12 UNK        -0.0967 
     18 CA         26.8550   -2.3766   -7.0122 C.3       5 UNK         0.0660 
     19 N          25.6136   -2.1010   -6.2845 N.am      5 UNK        -0.4015 
     20 C          24.5270   -1.5910   -6.8872 C.2       4 UNK         0.4946 
     21 O          24.4359   -1.4208   -8.1041 O.2       4 UNK        -0.5353 
     22 CA         23.3449   -1.1728   -6.0005 C.3       4 UNK         0.0277 
     23 CB         22.4707   -2.3900   -5.6582 C.3       4 UNK        -0.1981 
     24 N          23.7304   -0.4936   -4.7646 N.am      4 UNK        -0.4209 
     25 C          24.4757    0.6121   -4.6397 C.2       3 UNK         0.4942 
     26 O          24.9749    1.2114   -5.5918 O.2       3 UNK        -0.5208 
     27 CA         24.7319    1.1309   -3.2082 C.3       3 UNK         0.0250 
     28 CB         23.6111    2.0870   -2.7574 C.3       3 UNK        -0.1990 
     29 N          24.9793    0.0718   -2.2151 N.am      3 UNK        -0.4232 
     30 C          24.1530   -0.9001   -1.7971 C.2       2 UNK         0.4993 
     31 O          22.9612   -0.9572   -2.1051 O.2       2 UNK        -0.5286 
     32 CA         24.7676   -2.0376   -0.9586 C.3       2 UNK         0.0209 
     33 CB         24.0672   -3.3877   -1.2240 C.3       2 UNK        -0.1931 
     34 N          26.2211   -2.1988   -1.1107 N.am      2 UNK        -0.4546 
     35 C          26.9294   -2.4219   -2.2310 C.2       1 UNK         0.5154 
     36 O          26.4498   -2.4005   -3.3678 O.2       1 UNK        -0.5181 
     37 C          27.5867   -1.0644   -7.3305 C.2       5 UNK         0.5014 
     38 O          27.9805   -0.8532   -8.4770 O.2       5 UNK        -0.5248 
     39 N          27.7727   -0.2225   -6.3019 N.am      6 UNK        -0.4434 
     40 CA         28.5700    1.0074   -6.3353 C.3       6 UNK         0.0363 
     41 CB         28.5488    1.6709   -4.9524 C.3       6 UNK        -0.1936 
     42 C          28.1412    2.0066   -7.4191 C.2       6 UNK         0.5081 
     43 O          29.0063    2.6478   -8.0121 O.2       6 UNK        -0.5248 
     44 N          26.8341    2.0704   -7.7037 N.am      7 UNK        -0.4718 
     45 CA         26.2397    2.8531   -8.7909 C.3       7 UNK         0.0273 
     46 CB         24.7117    2.6938   -8.7357 C.3       7 UNK        -0.1935 
     47 C          26.7643    2.5011  -10.1988 C.2       7 UNK         0.5018 
     48 O          26.7293    3.3658  -11.0755 O.2       7 UNK        -0.5186 
     49 N          27.2374    1.2617  -10.3917 N.am      8 UNK        -0.4240 
     50 CA         27.8414    0.7805  -11.6349 C.3       8 UNK         0.0235 
     51 CB         27.1694   -0.5412  -12.0439 C.3       8 UNK        -0.2000 
     52 C          29.3582    0.5863  -11.4853 C.2       8 UNK         0.4941 
     53 O          30.1065    0.9726  -12.3836 O.2       8 UNK        -0.5273 
     54 N          29.7862   -0.0235  -10.3712 N.am      9 UNK        -0.4262 
     55 CA         31.1733   -0.4099  -10.1041 C.3       9 UNK         0.0264 
     56 CB         31.1891   -1.4814   -8.9992 C.3       9 UNK        -0.1955 
     57 C          32.0942    0.7589   -9.7186 C.2       9 UNK         0.5031 
     58 O          33.3081    0.6272   -9.8786 O.2       9 UNK        -0.5390 
     59 N          31.5233    1.8510   -9.1846 N.am      10 UNK        -0.4204 
     60 CA         32.2034    3.0429   -8.6549 C.3       10 UNK         0.0237 
     61 CB         32.9786    3.7839   -9.7660 C.3       10 UNK        -0.1985 
     62 C          33.0697    2.7750   -7.4047 C.2       10 UNK         0.4970 
     63 O          33.8980    3.6177   -7.0559 O.2       10 UNK        -0.4914 
     64 N          32.8611    1.6293   -6.7407 N.am      11 UNK        -0.4285 
     65 CA         33.5881    1.2061   -5.5344 C.3       11 UNK         0.1007 
     66 C          33.0913    1.8456   -4.2037 C.2       11 UNK         0.5703 
     67 N          32.0545    2.6756   -4.2094 N.am      11 UNK        -0.7361 
     68 O          33.6697    1.5985   -3.1483 O.2       11 UNK        -0.4986 
     69 C69        33.7167   -0.3390   -5.4605 C.3       12 UNK        -0.0947 
     70 S70        32.1415   -1.2414   -5.2710 S.3       12 UNK        -0.2240 
     71 C71        32.7664   -2.9490   -5.3867 C.3       12 UNK         0.0194 
     72 H72        30.8510    0.8671   -0.8131 H         1 UNK         0.0906 
     73 H73        30.8280    0.4817   -2.5327 H         1 UNK         0.0906 
     74 H74        29.6811    1.6536   -1.8747 H         1 UNK         0.0906 
     75 H75        29.9221   -1.4989   -2.9161 H         1 UNK         0.3140 
     76 H76        28.7174   -3.3092   -2.9024 H         1 UNK         0.1085 
     77 H77        28.3940   -3.0117    0.1305 H         1 UNK         0.0836 
     78 H78        28.2064   -4.4798   -0.7896 H         1 UNK         0.0836 
     79 H79        31.7495   -5.8193   -1.1483 H         1 UNK         0.0731 
     80 H80        30.0305   -6.1296   -1.1729 H         1 UNK         0.0731 
     81 H81        32.4877   -3.7822   -2.8153 H         1 UNK         0.1312 
     82 H82        30.8184   -4.3083   -6.7216 H         1 UNK         0.1406 
     83 H83        29.0849   -6.3401   -3.3613 H         1 UNK         0.1631 
     84 H84        29.0749   -5.9772   -7.0771 H         1 UNK         0.0717 
     85 H85        28.5310   -6.9905   -5.7641 H         1 UNK         0.0717 
     86 H86        28.1740   -2.8725   -5.3321 H         1 UNK         0.0934 
     87 H87        28.7212   -3.4200   -6.8951 H         1 UNK         0.0934 
     88 H88        26.5998   -2.8523   -7.9620 H         1 UNK         0.0739 
     89 H89        25.6306   -2.2324   -5.2778 H         1 UNK         0.3093 
     90 H90        22.7407   -0.4679   -6.5753 H         1 UNK         0.0818 
     91 H91        21.5701   -2.0929   -5.1203 H         1 UNK         0.0819 
     92 H92        22.1504   -2.9090   -6.5628 H         1 UNK         0.0819 
     93 H93        23.0072   -3.1108   -5.0395 H         1 UNK         0.0819 
     94 H94        23.3483   -0.8711   -3.9003 H         1 UNK         0.3041 
     95 H95        25.6539    1.7118   -3.2489 H         1 UNK         0.0784 
     96 H96        23.5171    2.9256   -3.4486 H         1 UNK         0.0793 
     97 H97        22.6400    1.5929   -2.7174 H         1 UNK         0.0793 
     98 H98        23.8173    2.5018   -1.7707 H         1 UNK         0.0793 
     99 H99        25.9387   -0.0032   -1.9041 H         1 UNK         0.3024 
    100 H100       24.5909   -1.7674    0.0839 H         1 UNK         0.1171 
    101 H101       24.4929   -4.1830   -0.6122 H         1 UNK         0.0786 
    102 H102       23.0039   -3.3361   -0.9861 H         1 UNK         0.0786 
    103 H103       24.1531   -3.6867   -2.2696 H         1 UNK         0.0786 
    104 H104       26.7502   -2.1228   -0.2519 H         1 UNK         0.2977 
    105 H105       27.3699   -0.4707   -5.4105 H         1 UNK         0.3127 
    106 H106       29.5984    0.7132   -6.5536 H         1 UNK         0.0770 
    107 H107       27.5444    1.9893   -4.6744 H         1 UNK         0.0814 
    108 H108       29.1850    2.5563   -4.9332 H         1 UNK         0.0814 
    109 H109       28.9141    0.9905   -4.1859 H         1 UNK         0.0814 
    110 H110       26.1911    1.5505   -7.1114 H         1 UNK         0.2983 
    111 H111       26.4852    3.9015   -8.6097 H         1 UNK         0.0947 
    112 H112       24.2267    3.2765   -9.5202 H         1 UNK         0.0806 
    113 H113       24.3116    3.0384   -7.7819 H         1 UNK         0.0806 
    114 H114       24.4122    1.6527   -8.8662 H         1 UNK         0.0806 
    115 H115       27.2518    0.6217   -9.6038 H         1 UNK         0.3000 
    116 H116       27.6812    1.5001  -12.4407 H         1 UNK         0.0850 
    117 H117       27.6060   -0.9340  -12.9632 H         1 UNK         0.0810 
    118 H118       26.1037   -0.4012  -12.2253 H         1 UNK         0.0810 
    119 H119       27.2782   -1.3079  -11.2754 H         1 UNK         0.0810 
    120 H120       29.0955   -0.3317   -9.6860 H         1 UNK         0.3040 
    121 H121       31.5810   -0.8562  -11.0138 H         1 UNK         0.0766 
    122 H122       30.6162   -2.3614   -9.2921 H         1 UNK         0.0812 
    123 H123       30.7685   -1.1066   -8.0659 H         1 UNK         0.0812 
    124 H124       32.2065   -1.8138   -8.7872 H         1 UNK         0.0812 
    125 H125       30.5133    1.8666   -9.0720 H         1 UNK         0.3205 
    126 H126       31.4106    3.7124   -8.3196 H         1 UNK         0.0754 
    127 H127       33.3347    4.7535   -9.4159 H         1 UNK         0.0769 
    128 H128       32.3461    3.9681  -10.6345 H         1 UNK         0.0769 
    129 H129       33.8509    3.2208  -10.0990 H         1 UNK         0.0769 
    130 H130       32.1601    0.9893   -7.0788 H         1 UNK         0.2981 
    131 H131       34.6094    1.5768   -5.6405 H         1 UNK         0.0541 
    132 H132       31.5974    2.9137   -5.0730 H         1 UNK         0.3459 
    133 H133       31.7609    3.0997   -3.3446 H         1 UNK         0.3459 
    134 H134       34.3741   -0.6207   -4.6359 H         1 UNK         0.0612 
    135 H135       34.2077   -0.7025   -6.3649 H         1 UNK         0.0612 
    136 H136       33.7046   -3.0349   -4.8361 H         1 UNK         0.0624 
    137 H137       32.9966   -3.1785   -6.4282 H         1 UNK         0.0624 
@<TRIPOS>BOND
     1    1    2 1    
     2    1   72 1    
     3    1   73 1    
     4    1   74 1    
     5    2    3 2    
     6    2    4 am   BACKBONE|DICT|INTERRES
     7    4    5 1    
     8    4   75 1    
     9    5    6 1    
    10    5   35 1    
    11    5   76 1    
    12    6    7 1    
    13    6   77 1    
    14    6   78 1    
    15    7    8 1    
    16    8    9 1    
    17    8   79 1    
    18    8   80 1    
    19    9   10 ar   
    20    9   14 ar   
    21   10   11 ar   
    22   10   81 1    
    23   11   12 ar   
    24   11   71 1    
    25   12   13 ar   
    26   12   82 1    
    27   13   14 ar   
    28   13   15 1    
    29   14   83 1    
    30   15   16 1    
    31   15   84 1    
    32   15   85 1    
    33   16   17 1    
    34   17   18 1    
    35   17   86 1    
    36   17   87 1    
    37   18   19 1    
    38   18   37 1    
    39   18   88 1    
    40   19   20 am   BACKBONE|DICT|INTERRES
    41   19   89 1    
    42   20   21 2    
    43   20   22 1    
    44   22   23 1    
    45   22   24 1    
    46   22   90 1    
    47   23   91 1    
    48   23   92 1    
    49   23   93 1    
    50   24   25 am   BACKBONE|DICT|INTERRES
    51   24   94 1    
    52   25   26 2    
    53   25   27 1    
    54   27   28 1    
    55   27   29 1    
    56   27   95 1    
    57   28   96 1    
    58   28   97 1    
    59   28   98 1    
    60   29   30 am   BACKBONE|DICT|INTERRES
    61   29   99 1    
    62   30   31 2    
    63   30   32 1    
    64   32   33 1    
    65   32   34 1    
    66   32  100 1    
    67   33  101 1    
    68   33  102 1    
    69   33  103 1    
    70   34   35 am   BACKBONE|DICT|INTERRES
    71   34  104 1    
    72   35   36 2    
    73   37   38 2    
    74   37   39 am   BACKBONE|DICT|INTERRES
    75   39   40 1    
    76   39  105 1    
    77   40   41 1    
    78   40   42 1    
    79   40  106 1    
    80   41  107 1    
    81   41  108 1    
    82   41  109 1    
    83   42   43 2    
    84   42   44 am   BACKBONE|DICT|INTERRES
    85   44   45 1    
    86   44  110 1    
    87   45   46 1    
    88   45   47 1    
    89   45  111 1    
    90   46  112 1    
    91   46  113 1    
    92   46  114 1    
    93   47   48 2    
    94   47   49 am   BACKBONE|DICT|INTERRES
    95   49   50 1    
    96   49  115 1    
    97   50   51 1    
    98   50   52 1    
    99   50  116 1    
   100   51  117 1    
   101   51  118 1    
   102   51  119 1    
   103   52   53 2    
   104   52   54 am   BACKBONE|DICT|INTERRES
   105   54   55 1    
   106   54  120 1    
   107   55   56 1    
   108   55   57 1    
   109   55  121 1    
   110   56  122 1    
   111   56  123 1    
   112   56  124 1    
   113   57   58 2    
   114   57   59 am   BACKBONE|DICT|INTERRES
   115   59   60 1    
   116   59  125 1    
   117   60   61 1    
   118   60   62 1    
   119   60  126 1    
   120   61  127 1    
   121   61  128 1    
   122   61  129 1    
   123   62   63 2    
   124   62   64 am   BACKBONE|DICT|INTERRES
   125   64   65 1    
   126   64  130 1    
   127   65   66 1    
   128   65   69 1    
   129   65  131 1    
   130   66   67 am   BACKBONE|DICT|INTERRES
   131   66   68 2    
   132   67  132 1    
   133   67  133 1    
   134   69   70 1    
   135   69  134 1    
   136   69  135 1    
   137   70   71 1    
   138   71  136 1    
   139   71  137 1    
@<TRIPOS>SUBSTRUCTURE
     1 UNK         1 GROUP             0       ****    0 ROOT    
