@<TRIPOS>MOLECULE
3R137
137   139    1
SMALL
USER_CHARGES


@<TRIPOS>ATOM
      1 CA         27.6565   -2.4858    2.2155 C.3       0 UNK        -0.2020 
      2 C          27.5362   -2.2764    0.7144 C.2       0 UNK         0.4855 
      3 O          27.3980   -1.1415    0.2606 O.2       0 UNK        -0.5197 
      4 N          27.5646   -3.3621   -0.0677 N.am      1 UNK        -0.4892 
      5 CA         27.5431   -3.3698   -1.5396 C.3       1 UNK         0.0835 
      6 C6         28.2368   -4.6324   -2.1162 C.3       12 UNK        -0.0855 
      7 S7         29.9298   -4.8669   -1.4725 S.3       12 UNK        -0.2931 
      8 C8         30.9550   -4.3343   -2.8875 C.3       12 UNK         0.0378 
      9 C9         30.9462   -2.8336   -3.1892 C.ar      12 UNK        -0.0802 
     10 C10        31.2902   -2.4136   -4.4772 C.ar      12 UNK        -0.0944 
     11 C11        31.3764   -1.0544   -4.7895 C.ar      12 UNK        -0.0787 
     12 C12        31.0736   -0.1048   -3.8109 C.ar      12 UNK        -0.0862 
     13 C13        30.6825   -0.5028   -2.5288 C.ar      12 UNK        -0.0733 
     14 C14        30.6577   -1.8663   -2.2165 C.ar      12 UNK        -0.0832 
     15 C15        30.3050    0.5274   -1.4660 C.3       12 UNK         0.0240 
     16 S16        29.1613    1.8261   -2.0601 S.3       12 UNK        -0.2522 
     17 C17        27.7536    0.8579   -2.7038 C.3       12 UNK        -0.0967 
     18 CA         27.6723    0.9270   -4.2525 C.3       5 UNK         0.0660 
     19 N          27.1682   -0.3149   -4.8330 N.am      5 UNK        -0.4015 
     20 C          27.4408   -0.7293   -6.0773 C.2       4 UNK         0.4946 
     21 O          28.1850   -0.1323   -6.8567 O.2       4 UNK        -0.5353 
     22 CA         26.7473   -2.0205   -6.5407 C.3       4 UNK         0.0277 
     23 CB         27.6172   -3.2401   -6.1997 C.3       4 UNK        -0.1981 
     24 N          25.4055   -2.1882   -5.9700 N.am      4 UNK        -0.4209 
     25 C          24.3655   -1.3946   -6.2717 C.2       3 UNK         0.4942 
     26 O          24.4339   -0.4542   -7.0599 O.2       3 UNK        -0.5208 
     27 CA         23.0367   -1.6462   -5.5400 C.3       3 UNK         0.0250 
     28 CB         22.2108   -2.7109   -6.2786 C.3       3 UNK        -0.1990 
     29 N          23.1875   -2.0309   -4.1352 N.am      3 UNK        -0.4232 
     30 C          23.8657   -1.3479   -3.2025 C.2       2 UNK         0.4993 
     31 O          24.4743   -0.2987   -3.4236 O.2       2 UNK        -0.5286 
     32 CA         23.9352   -1.9590   -1.7933 C.3       2 UNK         0.0209 
     33 CB         22.9824   -3.1554   -1.5653 C.3       2 UNK        -0.1931 
     34 N          25.3116   -2.3317   -1.4550 N.am      2 UNK        -0.4546 
     35 C          26.1299   -3.1536   -2.1293 C.2       1 UNK         0.5154 
     36 O          25.8105   -3.7182   -3.1783 O.2       1 UNK        -0.5181 
     37 C          26.8427    2.1259   -4.7486 C.2       5 UNK         0.5014 
     38 O          27.4204    3.1382   -5.1449 O.2       5 UNK        -0.5248 
     39 N          25.5086    1.9778   -4.7539 N.am      6 UNK        -0.4434 
     40 CA         24.5491    2.9923   -5.1978 C.3       6 UNK         0.0363 
     41 CB         23.1210    2.5252   -4.8762 C.3       6 UNK        -0.1936 
     42 C          24.6793    3.3521   -6.6876 C.2       6 UNK         0.5081 
     43 O          24.6455    4.5356   -7.0256 O.2       6 UNK        -0.5248 
     44 N          24.8430    2.3385   -7.5497 N.am      7 UNK        -0.4718 
     45 CA         25.0633    2.5131   -8.9896 C.3       7 UNK         0.0273 
     46 CB         24.6623    1.2239   -9.7257 C.3       7 UNK        -0.1935 
     47 C          26.5131    2.8917   -9.3409 C.2       7 UNK         0.5018 
     48 O          26.7527    3.3104  -10.4740 O.2       7 UNK        -0.5186 
     49 N          27.4388    2.7254   -8.3827 N.am      8 UNK        -0.4240 
     50 CA         28.8888    2.9140   -8.4897 C.3       8 UNK         0.0235 
     51 CB         29.2390    4.4014   -8.7081 C.3       8 UNK        -0.2000 
     52 C          29.4994    1.9815   -9.5510 C.2       8 UNK         0.4941 
     53 O          30.0119    2.4476  -10.5720 O.2       8 UNK        -0.5273 
     54 N          29.3953    0.6705   -9.2945 N.am      9 UNK        -0.4262 
     55 CA         29.9434   -0.4026  -10.1283 C.3       9 UNK         0.0264 
     56 CB         29.4440   -1.7519   -9.5830 C.3       9 UNK        -0.1955 
     57 C          31.4825   -0.3763  -10.1968 C.2       9 UNK         0.5031 
     58 O          32.1338    0.2460   -9.3544 O.2       9 UNK        -0.5390 
     59 N          32.0461   -1.0837  -11.1846 N.am      10 UNK        -0.4204 
     60 CA         33.4862   -1.1763  -11.4576 C.3       10 UNK         0.0237 
     61 CB         33.6851   -1.6223  -12.9192 C.3       10 UNK        -0.1985 
     62 C          34.2517   -2.0690  -10.4545 C.2       10 UNK         0.4970 
     63 O          34.9702   -2.9831  -10.8645 O.2       10 UNK        -0.4914 
     64 N          34.0822   -1.7925   -9.1585 N.am      11 UNK        -0.4285 
     65 CA         34.8265   -2.3983   -8.0480 C.3       11 UNK         0.1007 
     66 C          36.3061   -1.9242   -7.9740 C.2       11 UNK         0.5703 
     67 N          37.1612   -2.6762   -7.2932 N.am      11 UNK        -0.7361 
     68 O          36.6861   -0.8822   -8.5071 O.2       11 UNK        -0.4986 
     69 C69        34.0766   -2.2252   -6.6990 C.3       12 UNK        -0.0947 
     70 S70        33.6206   -0.4976   -6.3032 S.3       12 UNK        -0.2240 
     71 C71        31.8059   -0.6052   -6.1776 C.3       12 UNK         0.0194 
     72 H72        26.7676   -2.1076    2.7196 H         1 UNK         0.0906 
     73 H73        27.7715   -3.5386    2.4727 H         1 UNK         0.0906 
     74 H74        28.5218   -1.9465    2.5998 H         1 UNK         0.0906 
     75 H75        27.6615   -4.2724    0.3604 H         1 UNK         0.3140 
     76 H76        28.1098   -2.5064   -1.8847 H         1 UNK         0.1085 
     77 H77        28.2786   -4.5916   -3.2054 H         1 UNK         0.0836 
     78 H78        27.6575   -5.5251   -1.8732 H         1 UNK         0.0836 
     79 H79        30.6440   -4.8957   -3.7702 H         1 UNK         0.0731 
     80 H80        31.9858   -4.6296   -2.6874 H         1 UNK         0.0731 
     81 H81        31.5188   -3.1512   -5.2330 H         1 UNK         0.1312 
     82 H82        31.1328    0.9479   -4.0509 H         1 UNK         0.1406 
     83 H83        30.4050   -2.1706   -1.2104 H         1 UNK         0.1631 
     84 H84        31.2158    1.0032   -1.1009 H         1 UNK         0.0717 
     85 H85        29.8456    0.0395   -0.6048 H         1 UNK         0.0717 
     86 H86        27.8758   -0.1735   -2.3734 H         1 UNK         0.0934 
     87 H87        26.8313    1.1990   -2.2288 H         1 UNK         0.0934 
     88 H88        28.6830    1.0658   -4.6411 H         1 UNK         0.0739 
     89 H89        26.4715   -0.8141   -4.2969 H         1 UNK         0.3093 
     90 H90        26.6449   -1.9661   -7.6267 H         1 UNK         0.0818 
     91 H91        28.6042   -3.1554   -6.6567 H         1 UNK         0.0819 
     92 H92        27.1691   -4.1646   -6.5636 H         1 UNK         0.0819 
     93 H93        27.7674   -3.3377   -5.1251 H         1 UNK         0.0819 
     94 H94        25.2849   -2.9140   -5.2731 H         1 UNK         0.3041 
     95 H95        22.4736   -0.7118   -5.5573 H         1 UNK         0.0784 
     96 H96        22.0676   -2.4366   -7.3250 H         1 UNK         0.0793 
     97 H97        22.6990   -3.6862   -6.2610 H         1 UNK         0.0793 
     98 H98        21.2200   -2.8223   -5.8376 H         1 UNK         0.0793 
     99 H99        22.7561   -2.9007   -3.8581 H         1 UNK         0.3024 
    100 H100       23.6435   -1.1630   -1.1060 H         1 UNK         0.1171 
    101 H101       23.0225   -3.4887   -0.5281 H         1 UNK         0.0786 
    102 H102       21.9461   -2.8813   -1.7683 H         1 UNK         0.0786 
    103 H103       23.2323   -4.0132   -2.1909 H         1 UNK         0.0786 
    104 H104       25.7170   -1.8550   -0.6560 H         1 UNK         0.2977 
    105 H105       25.1141    1.1189   -4.3721 H         1 UNK         0.3127 
    106 H106       24.7460    3.8992   -4.6220 H         1 UNK         0.0770 
    107 H107       22.8619    1.6198   -5.4245 H         1 UNK         0.0814 
    108 H108       22.3909    3.2896   -5.1455 H         1 UNK         0.0814 
    109 H109       22.9991    2.3195   -3.8125 H         1 UNK         0.0814 
    110 H110       24.8041    1.3781   -7.2120 H         1 UNK         0.2983 
    111 H111       24.4197    3.3205   -9.3462 H         1 UNK         0.0947 
    112 H112       24.7311    1.3534  -10.8066 H         1 UNK         0.0806 
    113 H113       23.6353    0.9378   -9.4980 H         1 UNK         0.0806 
    114 H114       25.3111    0.3891   -9.4570 H         1 UNK         0.0806 
    115 H115       27.1159    2.3787   -7.4896 H         1 UNK         0.3000 
    116 H116       29.3107    2.6150   -7.5282 H         1 UNK         0.0850 
    117 H117       30.3197    4.5481   -8.7099 H         1 UNK         0.0810 
    118 H118       28.8274    5.0238   -7.9134 H         1 UNK         0.0810 
    119 H119       28.8596    4.7766   -9.6590 H         1 UNK         0.0810 
    120 H120       28.9641    0.3844   -8.4156 H         1 UNK         0.3040 
    121 H121       29.5571   -0.2658  -11.1404 H         1 UNK         0.0766 
    122 H122       28.3548   -1.7963   -9.5781 H         1 UNK         0.0812 
    123 H123       29.7876   -1.9255   -8.5632 H         1 UNK         0.0812 
    124 H124       29.7963   -2.5849  -10.1924 H         1 UNK         0.0812 
    125 H125       31.4432   -1.6010  -11.8084 H         1 UNK         0.3205 
    126 H126       33.9113   -0.1746  -11.3630 H         1 UNK         0.0754 
    127 H127       34.7435   -1.6412  -13.1833 H         1 UNK         0.0769 
    128 H128       33.1956   -0.9388  -13.6135 H         1 UNK         0.0769 
    129 H129       33.2867   -2.6225  -13.0943 H         1 UNK         0.0769 
    130 H130       33.4879   -1.0022   -8.9201 H         1 UNK         0.2981 
    131 H131       34.8665   -3.4704   -8.2511 H         1 UNK         0.0541 
    132 H132       36.8654   -3.5300   -6.8463 H         1 UNK         0.3459 
    133 H133       38.1236   -2.3837   -7.2263 H         1 UNK         0.3459 
    134 H134       33.1748   -2.8349   -6.7329 H         1 UNK         0.0612 
    135 H135       34.6628   -2.6250   -5.8699 H         1 UNK         0.0612 
    136 H136       31.3799    0.3742   -6.4015 H         1 UNK         0.0624 
    137 H137       31.4145   -1.2807   -6.9383 H         1 UNK         0.0624 
@<TRIPOS>BOND
     1    1    2 1    
     2    1   72 1    
     3    1   73 1    
     4    1   74 1    
     5    2    3 2    
     6    2    4 am   BACKBONE|DICT|INTERRES
     7    4    5 1    
     8    4   75 1    
     9    5    6 1    
    10    5   35 1    
    11    5   76 1    
    12    6    7 1    
    13    6   77 1    
    14    6   78 1    
    15    7    8 1    
    16    8    9 1    
    17    8   79 1    
    18    8   80 1    
    19    9   10 ar   
    20    9   14 ar   
    21   10   11 ar   
    22   10   81 1    
    23   11   12 ar   
    24   11   71 1    
    25   12   13 ar   
    26   12   82 1    
    27   13   14 ar   
    28   13   15 1    
    29   14   83 1    
    30   15   16 1    
    31   15   84 1    
    32   15   85 1    
    33   16   17 1    
    34   17   18 1    
    35   17   86 1    
    36   17   87 1    
    37   18   19 1    
    38   18   37 1    
    39   18   88 1    
    40   19   20 am   BACKBONE|DICT|INTERRES
    41   19   89 1    
    42   20   21 2    
    43   20   22 1    
    44   22   23 1    
    45   22   24 1    
    46   22   90 1    
    47   23   91 1    
    48   23   92 1    
    49   23   93 1    
    50   24   25 am   BACKBONE|DICT|INTERRES
    51   24   94 1    
    52   25   26 2    
    53   25   27 1    
    54   27   28 1    
    55   27   29 1    
    56   27   95 1    
    57   28   96 1    
    58   28   97 1    
    59   28   98 1    
    60   29   30 am   BACKBONE|DICT|INTERRES
    61   29   99 1    
    62   30   31 2    
    63   30   32 1    
    64   32   33 1    
    65   32   34 1    
    66   32  100 1    
    67   33  101 1    
    68   33  102 1    
    69   33  103 1    
    70   34   35 am   BACKBONE|DICT|INTERRES
    71   34  104 1    
    72   35   36 2    
    73   37   38 2    
    74   37   39 am   BACKBONE|DICT|INTERRES
    75   39   40 1    
    76   39  105 1    
    77   40   41 1    
    78   40   42 1    
    79   40  106 1    
    80   41  107 1    
    81   41  108 1    
    82   41  109 1    
    83   42   43 2    
    84   42   44 am   BACKBONE|DICT|INTERRES
    85   44   45 1    
    86   44  110 1    
    87   45   46 1    
    88   45   47 1    
    89   45  111 1    
    90   46  112 1    
    91   46  113 1    
    92   46  114 1    
    93   47   48 2    
    94   47   49 am   BACKBONE|DICT|INTERRES
    95   49   50 1    
    96   49  115 1    
    97   50   51 1    
    98   50   52 1    
    99   50  116 1    
   100   51  117 1    
   101   51  118 1    
   102   51  119 1    
   103   52   53 2    
   104   52   54 am   BACKBONE|DICT|INTERRES
   105   54   55 1    
   106   54  120 1    
   107   55   56 1    
   108   55   57 1    
   109   55  121 1    
   110   56  122 1    
   111   56  123 1    
   112   56  124 1    
   113   57   58 2    
   114   57   59 am   BACKBONE|DICT|INTERRES
   115   59   60 1    
   116   59  125 1    
   117   60   61 1    
   118   60   62 1    
   119   60  126 1    
   120   61  127 1    
   121   61  128 1    
   122   61  129 1    
   123   62   63 2    
   124   62   64 am   BACKBONE|DICT|INTERRES
   125   64   65 1    
   126   64  130 1    
   127   65   66 1    
   128   65   69 1    
   129   65  131 1    
   130   66   67 am   BACKBONE|DICT|INTERRES
   131   66   68 2    
   132   67  132 1    
   133   67  133 1    
   134   69   70 1    
   135   69  134 1    
   136   69  135 1    
   137   70   71 1    
   138   71  136 1    
   139   71  137 1    
@<TRIPOS>SUBSTRUCTURE
     1 UNK         1 GROUP             0       ****    0 ROOT    
