@<TRIPOS>MOLECULE
3R137
137   139    1
SMALL
USER_CHARGES


@<TRIPOS>ATOM
      1 CA         22.8114   -6.9616   -2.8244 C.3       0 UNK        -0.2020 
      2 C          23.5138   -6.1607   -1.7381 C.2       0 UNK         0.4855 
      3 O          22.9367   -5.9346   -0.6738 O.2       0 UNK        -0.5197 
      4 N          24.7577   -5.7365   -1.9936 N.am      1 UNK        -0.4892 
      5 CA         25.5448   -4.8842   -1.0987 C.3       1 UNK         0.0835 
      6 C6         27.0443   -4.9040   -1.4938 C.3       12 UNK        -0.0855 
      7 S7         28.1215   -4.1410   -0.2306 S.3       12 UNK        -0.2931 
      8 C8         29.7527   -4.7967   -0.6915 C.3       12 UNK         0.0378 
      9 C9         30.3115   -4.1182   -1.9338 C.ar      12 UNK        -0.0802 
     10 C10        31.0303   -2.9230   -1.8192 C.ar      12 UNK        -0.0944 
     11 C11        31.6120   -2.3224   -2.9416 C.ar      12 UNK        -0.0787 
     12 C12        31.4731   -2.9520   -4.1842 C.ar      12 UNK        -0.0862 
     13 C13        30.6979   -4.1048   -4.3266 C.ar      12 UNK        -0.0733 
     14 C14        30.1302   -4.6941   -3.1945 C.ar      12 UNK        -0.0832 
     15 C15        30.4685   -4.7011   -5.7088 C.3       12 UNK         0.0240 
     16 S16        28.9675   -4.0244   -6.4963 S.3       12 UNK        -0.2522 
     17 C17        29.4817   -2.3115   -6.8682 C.3       12 UNK        -0.0967 
     18 CA         28.3161   -1.3930   -7.2980 C.3       5 UNK         0.0660 
     19 N          27.2758   -1.3582   -6.2666 N.am      5 UNK        -0.4015 
     20 C          26.1323   -0.6639   -6.3058 C.2       4 UNK         0.4946 
     21 O          25.7535   -0.0272   -7.2882 O.2       4 UNK        -0.5353 
     22 CA         25.3111   -0.6064   -5.0050 C.3       4 UNK         0.0277 
     23 CB         24.1540   -1.6154   -5.0615 C.3       4 UNK        -0.1981 
     24 N          26.0873   -0.8096   -3.7695 N.am      4 UNK        -0.4209 
     25 C          27.1497   -0.0764   -3.3861 C.2       3 UNK         0.4942 
     26 O          27.6431    0.8059   -4.0895 O.2       3 UNK        -0.5208 
     27 CA         27.7959   -0.3946   -2.0199 C.3       3 UNK         0.0250 
     28 CB         28.5601    0.8076   -1.4274 C.3       3 UNK        -0.1990 
     29 N          26.8600   -0.9536   -1.0392 N.am      3 UNK        -0.4232 
     30 C          25.7140   -0.4145   -0.5889 C.2       2 UNK         0.4993 
     31 O          25.3480    0.7336   -0.8441 O.2       2 UNK        -0.5286 
     32 CA         24.8066   -1.3347    0.2605 C.3       2 UNK         0.0209 
     33 CB         23.3078   -1.0213    0.0624 C.3       2 UNK        -0.1931 
     34 N          25.0638   -2.7706    0.0519 N.am      2 UNK        -0.4546 
     35 C          24.9983   -3.4428   -1.1092 C.2       1 UNK         0.5154 
     36 O          24.6390   -2.9390   -2.1761 O.2       1 UNK        -0.5181 
     37 C          28.8604    0.0098   -7.6656 C.2       5 UNK         0.5014 
     38 O          29.3302    0.1942   -8.7898 O.2       5 UNK        -0.5248 
     39 N          28.7757    0.9882   -6.7482 N.am      6 UNK        -0.4434 
     40 CA         29.1234    2.3886   -7.0023 C.3       6 UNK         0.0363 
     41 CB         29.1298    3.1750   -5.6834 C.3       6 UNK        -0.1936 
     42 C          28.2049    3.0681   -8.0330 C.2       6 UNK         0.5081 
     43 O          28.6787    3.9358   -8.7650 O.2       6 UNK        -0.5248 
     44 N          26.9366    2.6378   -8.1306 N.am      7 UNK        -0.4718 
     45 CA         25.9909    3.1140   -9.1492 C.3       7 UNK         0.0273 
     46 CB         24.5569    2.7288   -8.7525 C.3       7 UNK        -0.1935 
     47 C          26.3261    2.5904  -10.5580 C.2       7 UNK         0.5018 
     48 O          25.9847    3.2443  -11.5434 O.2       7 UNK        -0.5186 
     49 N          27.0224    1.4471  -10.6242 N.am      8 UNK        -0.4240 
     50 CA         27.6034    0.8778  -11.8420 C.3       8 UNK         0.0235 
     51 CB         27.5976   -0.6569  -11.7193 C.3       8 UNK        -0.2000 
     52 C          29.0284    1.4028  -12.1162 C.2       8 UNK         0.4941 
     53 O          29.6498    0.9539  -13.0798 O.2       8 UNK        -0.5273 
     54 N          29.5297    2.3148  -11.2654 N.am      9 UNK        -0.4262 
     55 CA         30.8714    2.9115  -11.2640 C.3       9 UNK         0.0264 
     56 CB         31.1203    3.7297  -12.5493 C.3       9 UNK        -0.1955 
     57 C          32.0058    1.9091  -10.9672 C.2       9 UNK         0.5031 
     58 O          33.1623    2.1985  -11.2786 O.2       9 UNK        -0.5390 
     59 N          31.6772    0.7689  -10.3438 N.am      10 UNK        -0.4204 
     60 CA         32.6270   -0.2828   -9.9704 C.3       10 UNK         0.0237 
     61 CB         31.9589   -1.6522  -10.1826 C.3       10 UNK        -0.1985 
     62 C          33.1615   -0.1287   -8.5334 C.2       10 UNK         0.4970 
     63 O          34.0768   -0.8631   -8.1606 O.2       10 UNK        -0.4914 
     64 N          32.6053    0.8135   -7.7611 N.am      11 UNK        -0.4285 
     65 CA         33.0194    1.1461   -6.3876 C.3       11 UNK         0.1007 
     66 C          32.9643    2.6717   -6.0866 C.2       11 UNK         0.5703 
     67 N          32.9277    3.5386   -7.0930 N.am      11 UNK        -0.7361 
     68 O          32.9627    3.0841   -4.9298 O.2       11 UNK        -0.4986 
     69 C69        32.2869    0.2665   -5.3289 C.3       12 UNK        -0.0947 
     70 S70        33.4492   -0.4779   -4.1306 S.3       12 UNK        -0.2240 
     71 C71        32.3505   -0.9913   -2.7606 C.3       12 UNK         0.0194 
     72 H72        23.4418   -7.0995   -3.7027 H         1 UNK         0.0906 
     73 H73        22.5365   -7.9461   -2.4468 H         1 UNK         0.0906 
     74 H74        21.9015   -6.4502   -3.1375 H         1 UNK         0.0906 
     75 H75        25.1665   -5.9198   -2.8989 H         1 UNK         0.3140 
     76 H76        25.4466   -5.2882   -0.0880 H         1 UNK         0.1085 
     77 H77        27.3688   -5.9371   -1.6299 H         1 UNK         0.0836 
     78 H78        27.2070   -4.4061   -2.4523 H         1 UNK         0.0836 
     79 H79        29.6917   -5.8766   -0.8355 H         1 UNK         0.0731 
     80 H80        30.4376   -4.6448    0.1443 H         1 UNK         0.0731 
     81 H81        31.1426   -2.4620   -0.8470 H         1 UNK         0.1312 
     82 H82        31.9396   -2.5411   -5.0646 H         1 UNK         0.1406 
     83 H83        29.5508   -5.6018   -3.2954 H         1 UNK         0.1631 
     84 H84        30.3672   -5.7847   -5.6319 H         1 UNK         0.0717 
     85 H85        31.3313   -4.5218   -6.3524 H         1 UNK         0.0717 
     86 H86        29.9367   -1.8859   -5.9777 H         1 UNK         0.0934 
     87 H87        30.2611   -2.3506   -7.6290 H         1 UNK         0.0934 
     88 H88        27.8626   -1.8046   -8.2018 H         1 UNK         0.0739 
     89 H89        27.4832   -1.8699   -5.4221 H         1 UNK         0.3093 
     90 H90        24.8834    0.3966   -4.9488 H         1 UNK         0.0818 
     91 H91        23.5610   -1.4838   -5.9679 H         1 UNK         0.0819 
     92 H92        24.5154   -2.6445   -5.0522 H         1 UNK         0.0819 
     93 H93        23.4785   -1.4904   -4.2149 H         1 UNK         0.0819 
     94 H94        25.7241   -1.5134   -3.1332 H         1 UNK         0.3041 
     95 H95        28.5270   -1.1803   -2.2173 H         1 UNK         0.0784 
     96 H96        29.0345    0.5482   -0.4811 H         1 UNK         0.0793 
     97 H97        29.3492    1.1426   -2.1019 H         1 UNK         0.0793 
     98 H98        27.9003    1.6578   -1.2520 H         1 UNK         0.0793 
     99 H99        27.0673   -1.8990   -0.7435 H         1 UNK         0.3024 
    100 H100       25.0565   -1.1212    1.3012 H         1 UNK         0.1171 
    101 H101       22.6819   -1.6756    0.6691 H         1 UNK         0.0786 
    102 H102       23.0788    0.0044    0.3544 H         1 UNK         0.0786 
    103 H103       23.0040   -1.1373   -0.9786 H         1 UNK         0.0786 
    104 H104       25.4100   -3.2662    0.8630 H         1 UNK         0.2977 
    105 H105       28.3685    0.7895   -5.8356 H         1 UNK         0.3127 
    106 H106       30.1346    2.4111   -7.4098 H         1 UNK         0.0770 
    107 H107       28.1360    3.2208   -5.2364 H         1 UNK         0.0814 
    108 H108       29.4635    4.2011   -5.8438 H         1 UNK         0.0814 
    109 H109       29.8040    2.7262   -4.9539 H         1 UNK         0.0814 
    110 H110       26.6211    1.8746   -7.5409 H         1 UNK         0.2983 
    111 H111       26.0499    4.2044   -9.1833 H         1 UNK         0.0947 
    112 H112       23.8341    3.1661   -9.4425 H         1 UNK         0.0806 
    113 H113       24.3090    3.0871   -7.7534 H         1 UNK         0.0806 
    114 H114       24.4061    1.6492   -8.7706 H         1 UNK         0.0806 
    115 H115       27.2675    0.9890   -9.7566 H         1 UNK         0.3000 
    116 H116       26.9867    1.1526  -12.7004 H         1 UNK         0.0850 
    117 H117       27.9505   -1.1243  -12.6395 H         1 UNK         0.0810 
    118 H118       26.5932   -1.0365  -11.5309 H         1 UNK         0.0810 
    119 H119       28.2442   -1.0030  -10.9125 H         1 UNK         0.0810 
    120 H120       28.9332    2.6276  -10.5091 H         1 UNK         0.3040 
    121 H121       30.8784    3.6143  -10.4297 H         1 UNK         0.0766 
    122 H122       31.2122    3.0895  -13.4271 H         1 UNK         0.0812 
    123 H123       32.0422    4.3075  -12.4736 H         1 UNK         0.0812 
    124 H124       30.3117    4.4373  -12.7320 H         1 UNK         0.0812 
    125 H125       30.7095    0.6151  -10.0679 H         1 UNK         0.3205 
    126 H126       33.4970   -0.2399  -10.6291 H         1 UNK         0.0754 
    127 H127       32.5997   -2.4669   -9.8425 H         1 UNK         0.0769 
    128 H128       31.7532   -1.8241  -11.2393 H         1 UNK         0.0769 
    129 H129       31.0129   -1.7301   -9.6506 H         1 UNK         0.0769 
    130 H130       31.8517    1.3644   -8.1415 H         1 UNK         0.2981 
    131 H131       34.0885    0.9331   -6.3318 H         1 UNK         0.0541 
    132 H132       33.0313    3.2371   -8.0476 H         1 UNK         0.3459 
    133 H133       32.8974    4.5234   -6.8807 H         1 UNK         0.3459 
    134 H134       31.7563   -0.5408   -5.8265 H         1 UNK         0.0612 
    135 H135       31.5166    0.8263   -4.7954 H         1 UNK         0.0612 
    136 H136       31.6202   -0.2031   -2.5735 H         1 UNK         0.0624 
    137 H137       32.9659   -1.0561   -1.8621 H         1 UNK         0.0624 
@<TRIPOS>BOND
     1    1    2 1    
     2    1   72 1    
     3    1   73 1    
     4    1   74 1    
     5    2    3 2    
     6    2    4 am   BACKBONE|DICT|INTERRES
     7    4    5 1    
     8    4   75 1    
     9    5    6 1    
    10    5   35 1    
    11    5   76 1    
    12    6    7 1    
    13    6   77 1    
    14    6   78 1    
    15    7    8 1    
    16    8    9 1    
    17    8   79 1    
    18    8   80 1    
    19    9   10 ar   
    20    9   14 ar   
    21   10   11 ar   
    22   10   81 1    
    23   11   12 ar   
    24   11   71 1    
    25   12   13 ar   
    26   12   82 1    
    27   13   14 ar   
    28   13   15 1    
    29   14   83 1    
    30   15   16 1    
    31   15   84 1    
    32   15   85 1    
    33   16   17 1    
    34   17   18 1    
    35   17   86 1    
    36   17   87 1    
    37   18   19 1    
    38   18   37 1    
    39   18   88 1    
    40   19   20 am   BACKBONE|DICT|INTERRES
    41   19   89 1    
    42   20   21 2    
    43   20   22 1    
    44   22   23 1    
    45   22   24 1    
    46   22   90 1    
    47   23   91 1    
    48   23   92 1    
    49   23   93 1    
    50   24   25 am   BACKBONE|DICT|INTERRES
    51   24   94 1    
    52   25   26 2    
    53   25   27 1    
    54   27   28 1    
    55   27   29 1    
    56   27   95 1    
    57   28   96 1    
    58   28   97 1    
    59   28   98 1    
    60   29   30 am   BACKBONE|DICT|INTERRES
    61   29   99 1    
    62   30   31 2    
    63   30   32 1    
    64   32   33 1    
    65   32   34 1    
    66   32  100 1    
    67   33  101 1    
    68   33  102 1    
    69   33  103 1    
    70   34   35 am   BACKBONE|DICT|INTERRES
    71   34  104 1    
    72   35   36 2    
    73   37   38 2    
    74   37   39 am   BACKBONE|DICT|INTERRES
    75   39   40 1    
    76   39  105 1    
    77   40   41 1    
    78   40   42 1    
    79   40  106 1    
    80   41  107 1    
    81   41  108 1    
    82   41  109 1    
    83   42   43 2    
    84   42   44 am   BACKBONE|DICT|INTERRES
    85   44   45 1    
    86   44  110 1    
    87   45   46 1    
    88   45   47 1    
    89   45  111 1    
    90   46  112 1    
    91   46  113 1    
    92   46  114 1    
    93   47   48 2    
    94   47   49 am   BACKBONE|DICT|INTERRES
    95   49   50 1    
    96   49  115 1    
    97   50   51 1    
    98   50   52 1    
    99   50  116 1    
   100   51  117 1    
   101   51  118 1    
   102   51  119 1    
   103   52   53 2    
   104   52   54 am   BACKBONE|DICT|INTERRES
   105   54   55 1    
   106   54  120 1    
   107   55   56 1    
   108   55   57 1    
   109   55  121 1    
   110   56  122 1    
   111   56  123 1    
   112   56  124 1    
   113   57   58 2    
   114   57   59 am   BACKBONE|DICT|INTERRES
   115   59   60 1    
   116   59  125 1    
   117   60   61 1    
   118   60   62 1    
   119   60  126 1    
   120   61  127 1    
   121   61  128 1    
   122   61  129 1    
   123   62   63 2    
   124   62   64 am   BACKBONE|DICT|INTERRES
   125   64   65 1    
   126   64  130 1    
   127   65   66 1    
   128   65   69 1    
   129   65  131 1    
   130   66   67 am   BACKBONE|DICT|INTERRES
   131   66   68 2    
   132   67  132 1    
   133   67  133 1    
   134   69   70 1    
   135   69  134 1    
   136   69  135 1    
   137   70   71 1    
   138   71  136 1    
   139   71  137 1    
@<TRIPOS>SUBSTRUCTURE
     1 UNK         1 GROUP             0       ****    0 ROOT    
