@<TRIPOS>MOLECULE
3R137
137   139    1
SMALL
USER_CHARGES


@<TRIPOS>ATOM
      1 CA         25.6765   -7.8359   -4.3533 C.3       0 UNK        -0.2020 
      2 C          25.9710   -6.3457   -4.2729 C.2       0 UNK         0.4855 
      3 O          25.3767   -5.5697   -5.0203 O.2       0 UNK        -0.5197 
      4 N          26.8742   -5.9484   -3.3642 N.am      1 UNK        -0.4892 
      5 CA         27.3375   -4.5736   -3.1199 C.3       1 UNK         0.0835 
      6 C6         28.2752   -4.0296   -4.2316 C.3       12 UNK        -0.0855 
      7 S7         29.8740   -4.9097   -4.3131 S.3       12 UNK        -0.2931 
      8 C8         30.7137   -4.4017   -2.7689 C.3       12 UNK         0.0378 
      9 C9         30.7020   -2.8939   -2.5506 C.ar      12 UNK        -0.0802 
     10 C10        31.5414   -2.0681   -3.3031 C.ar      12 UNK        -0.0944 
     11 C11        31.5125   -0.6805   -3.1327 C.ar      12 UNK        -0.0787 
     12 C12        30.6465   -0.1208   -2.1872 C.ar      12 UNK        -0.0862 
     13 C13        29.7999   -0.9369   -1.4280 C.ar      12 UNK        -0.0733 
     14 C14        29.8423   -2.3224   -1.6060 C.ar      12 UNK        -0.0832 
     15 C15        28.8272   -0.3284   -0.4244 C.3       12 UNK         0.0240 
     16 S16        27.1420   -0.1698   -1.1106 S.3       12 UNK        -0.2522 
     17 C17        27.3923    1.1096   -2.3854 C.3       12 UNK        -0.0967 
     18 CA         27.5731    0.4714   -3.7922 C.3       5 UNK         0.0660 
     19 N          26.3205   -0.0335   -4.3660 N.am      5 UNK        -0.4015 
     20 C          25.3700    0.6894   -4.9754 C.2       4 UNK         0.4946 
     21 O          25.3614    1.9217   -5.0041 O.2       4 UNK        -0.5353 
     22 CA         24.2678   -0.0724   -5.7235 C.3       4 UNK         0.0277 
     23 CB         24.7503   -0.4650   -7.1331 C.3       4 UNK        -0.1981 
     24 N          23.7827   -1.2622   -5.0158 N.am      4 UNK        -0.4209 
     25 C          22.5269   -1.7261   -5.1219 C.2       3 UNK         0.4942 
     26 O          21.6533   -1.1727   -5.7922 O.2       3 UNK        -0.5208 
     27 CA         22.1601   -3.0302   -4.3853 C.3       3 UNK         0.0250 
     28 CB         22.0802   -4.2017   -5.3780 C.3       3 UNK        -0.1990 
     29 N          23.0875   -3.3809   -3.3109 N.am      3 UNK        -0.4232 
     30 C          23.1828   -2.7300   -2.1439 C.2       2 UNK         0.4993 
     31 O          22.4223   -1.8207   -1.8102 O.2       2 UNK        -0.5286 
     32 CA         24.3189   -3.1402   -1.1868 C.3       2 UNK         0.0209 
     33 CB         23.7490   -3.8771    0.0370 C.3       2 UNK        -0.1931 
     34 N          25.3929   -3.9562   -1.7715 N.am      2 UNK        -0.4546 
     35 C          26.1743   -3.6113   -2.8054 C.2       1 UNK         0.5154 
     36 O          25.9818   -2.6143   -3.5043 O.2       1 UNK        -0.5181 
     37 C          28.3364    1.3397   -4.8170 C.2       5 UNK         0.5014 
     38 O          28.5522    0.8736   -5.9357 O.2       5 UNK        -0.5248 
     39 N          28.7027    2.5773   -4.4513 N.am      6 UNK        -0.4434 
     40 CA         29.5035    3.5128   -5.2503 C.3       6 UNK         0.0363 
     41 CB         29.7958    4.7627   -4.4038 C.3       6 UNK        -0.1936 
     42 C          28.9080    3.9097   -6.6167 C.2       6 UNK         0.5081 
     43 O          29.6318    4.4752   -7.4367 O.2       6 UNK        -0.5248 
     44 N          27.6214    3.6147   -6.8531 N.am      7 UNK        -0.4718 
     45 CA         26.9753    3.7543   -8.1593 C.3       7 UNK         0.0273 
     46 CB         25.4492    3.7339   -7.9768 C.3       7 UNK        -0.1935 
     47 C          27.4189    2.6827   -9.1761 C.2       7 UNK         0.5018 
     48 O          27.2421    2.9015  -10.3757 O.2       7 UNK        -0.5186 
     49 N          27.9730    1.5533   -8.7073 N.am      8 UNK        -0.4240 
     50 CA         28.5291    0.5010   -9.5581 C.3       8 UNK         0.0235 
     51 CB         28.6314   -0.8084   -8.7581 C.3       8 UNK        -0.2000 
     52 C          29.9122    0.9077  -10.0879 C.2       8 UNK         0.4941 
     53 O          30.7323    1.4260   -9.3269 O.2       8 UNK        -0.5273 
     54 N          30.1719    0.6090  -11.3688 N.am      9 UNK        -0.4262 
     55 CA         31.4379    0.8973  -12.0571 C.3       9 UNK         0.0264 
     56 CB         31.2935    0.5645  -13.5509 C.3       9 UNK        -0.1955 
     57 C          32.6577    0.1709  -11.4600 C.2       9 UNK         0.5031 
     58 O          33.7753    0.6781  -11.5682 O.2       9 UNK        -0.5390 
     59 N          32.4197   -0.9775  -10.8094 N.am      10 UNK        -0.4204 
     60 CA         33.4148   -1.7780  -10.0899 C.3       10 UNK         0.0237 
     61 CB         32.7449   -3.0611   -9.5708 C.3       10 UNK        -0.1985 
     62 C          34.1103   -1.0340   -8.9335 C.2       10 UNK         0.4970 
     63 O          35.2352   -1.3966   -8.5867 O.2       10 UNK        -0.4914 
     64 N          33.4496   -0.0136   -8.3703 N.am      11 UNK        -0.4285 
     65 CA         34.0099    0.8699   -7.3373 C.3       11 UNK         0.1007 
     66 C          34.9771    1.9565   -7.8938 C.2       11 UNK         0.5703 
     67 N          35.1331    2.1168   -9.2043 N.am      11 UNK        -0.7361 
     68 O          35.6135    2.6635   -7.1159 O.2       11 UNK        -0.4986 
     69 C69        32.8998    1.5023   -6.4583 C.3       12 UNK        -0.0947 
     70 S70        31.8060    0.2540   -5.7041 S.3       12 UNK        -0.2240 
     71 C71        32.4025    0.2097   -3.9881 C.3       12 UNK         0.0194 
     72 H72        25.9033   -8.2082   -5.3519 H         1 UNK         0.0906 
     73 H73        26.2642   -8.4091   -3.6366 H         1 UNK         0.0906 
     74 H74        24.6216   -8.0207   -4.1525 H         1 UNK         0.0906 
     75 H75        27.3170   -6.6522   -2.7892 H         1 UNK         0.3140 
     76 H76        27.9126   -4.6150   -2.1957 H         1 UNK         0.1085 
     77 H77        27.7891   -4.1045   -5.2058 H         1 UNK         0.0836 
     78 H78        28.4842   -2.9672   -4.0949 H         1 UNK         0.0836 
     79 H79        30.2561   -4.9166   -1.9232 H         1 UNK         0.0731 
     80 H80        31.7467   -4.7509   -2.8037 H         1 UNK         0.0731 
     81 H81        32.2002   -2.5036   -4.0422 H         1 UNK         0.1312 
     82 H82        30.6193    0.9520   -2.0554 H         1 UNK         0.1406 
     83 H83        29.1903   -2.9510   -1.0158 H         1 UNK         0.1631 
     84 H84        29.1803    0.6472   -0.0869 H         1 UNK         0.0717 
     85 H85        28.7837   -0.9565    0.4666 H         1 UNK         0.0717 
     86 H86        26.5417    1.7933   -2.3754 H         1 UNK         0.0934 
     87 H87        28.2574    1.6981   -2.0797 H         1 UNK         0.0934 
     88 H88        28.2043   -0.4110   -3.6815 H         1 UNK         0.0739 
     89 H89        26.2274   -1.0453   -4.3218 H         1 UNK         0.3093 
     90 H90        23.4422    0.6346   -5.8331 H         1 UNK         0.0818 
     91 H91        23.9288   -0.8415   -7.7426 H         1 UNK         0.0819 
     92 H92        25.1789    0.3879   -7.6605 H         1 UNK         0.0819 
     93 H93        25.5169   -1.2393   -7.0908 H         1 UNK         0.0819 
     94 H94        24.4441   -1.7637   -4.4304 H         1 UNK         0.3041 
     95 H95        21.1702   -2.8884   -3.9462 H         1 UNK         0.0784 
     96 H96        21.3532   -3.9977   -6.1653 H         1 UNK         0.0793 
     97 H97        23.0404   -4.3853   -5.8618 H         1 UNK         0.0793 
     98 H98        21.7713   -5.1229   -4.8837 H         1 UNK         0.0793 
     99 H99        23.7713   -4.0968   -3.5173 H         1 UNK         0.3024 
    100 H100       24.7764   -2.2100   -0.8425 H         1 UNK         0.1171 
    101 H101       22.9706   -3.2873    0.5235 H         1 UNK         0.0786 
    102 H102       24.5207   -4.0648    0.7838 H         1 UNK         0.0786 
    103 H103       23.3066   -4.8348   -0.2400 H         1 UNK         0.0786 
    104 H104       25.5966   -4.8242   -1.2968 H         1 UNK         0.2977 
    105 H105       28.4268    2.9053   -3.5379 H         1 UNK         0.3127 
    106 H106       30.4532    3.0181   -5.4608 H         1 UNK         0.0770 
    107 H107       28.8796    5.2890   -4.1334 H         1 UNK         0.0814 
    108 H108       30.4259    5.4665   -4.9495 H         1 UNK         0.0814 
    109 H109       30.3240    4.5075   -3.4849 H         1 UNK         0.0814 
    110 H110       27.0907    3.1449   -6.1296 H         1 UNK         0.2983 
    111 H111       27.2517    4.7258   -8.5754 H         1 UNK         0.0947 
    112 H112       24.9401    3.8827   -8.9301 H         1 UNK         0.0806 
    113 H113       25.1187    4.5274   -7.3064 H         1 UNK         0.0806 
    114 H114       25.1024    2.7854   -7.5681 H         1 UNK         0.0806 
    115 H115       28.1439    1.4571   -7.7084 H         1 UNK         0.3000 
    116 H116       27.8506    0.3387  -10.3986 H         1 UNK         0.0850 
    117 H117       28.9668   -1.6303   -9.3913 H         1 UNK         0.0810 
    118 H118       29.3414   -0.7226   -7.9337 H         1 UNK         0.0810 
    119 H119       27.6676   -1.0945   -8.3379 H         1 UNK         0.0810 
    120 H120       29.4464    0.1772  -11.9240 H         1 UNK         0.3040 
    121 H121       31.6251    1.9691  -11.9623 H         1 UNK         0.0766 
    122 H122       32.2127    0.7939  -14.0920 H         1 UNK         0.0812 
    123 H123       30.4957    1.1464  -14.0129 H         1 UNK         0.0812 
    124 H124       31.0767   -0.4924  -13.7114 H         1 UNK         0.0812 
    125 H125       31.4671   -1.3088  -10.7799 H         1 UNK         0.3205 
    126 H126       34.1895   -2.0583  -10.8066 H         1 UNK         0.0754 
    127 H127       33.4658   -3.6966   -9.0543 H         1 UNK         0.0769 
    128 H128       32.3249   -3.6496  -10.3867 H         1 UNK         0.0769 
    129 H129       31.9423   -2.8401   -8.8654 H         1 UNK         0.0769 
    130 H130       32.5326    0.2433   -8.7145 H         1 UNK         0.2981 
    131 H131       34.6198    0.2532   -6.6744 H         1 UNK         0.0541 
    132 H132       34.6269    1.5433   -9.8687 H         1 UNK         0.3459 
    133 H133       35.7695    2.8227   -9.5381 H         1 UNK         0.3459 
    134 H134       32.2785    2.1689   -7.0593 H         1 UNK         0.0612 
    135 H135       33.3325    2.1197   -5.6692 H         1 UNK         0.0612 
    136 H136       32.4274    1.2245   -3.5880 H         1 UNK         0.0624 
    137 H137       33.4275   -0.1632   -3.9696 H         1 UNK         0.0624 
@<TRIPOS>BOND
     1    1    2 1    
     2    1   72 1    
     3    1   73 1    
     4    1   74 1    
     5    2    3 2    
     6    2    4 am   BACKBONE|DICT|INTERRES
     7    4    5 1    
     8    4   75 1    
     9    5    6 1    
    10    5   35 1    
    11    5   76 1    
    12    6    7 1    
    13    6   77 1    
    14    6   78 1    
    15    7    8 1    
    16    8    9 1    
    17    8   79 1    
    18    8   80 1    
    19    9   10 ar   
    20    9   14 ar   
    21   10   11 ar   
    22   10   81 1    
    23   11   12 ar   
    24   11   71 1    
    25   12   13 ar   
    26   12   82 1    
    27   13   14 ar   
    28   13   15 1    
    29   14   83 1    
    30   15   16 1    
    31   15   84 1    
    32   15   85 1    
    33   16   17 1    
    34   17   18 1    
    35   17   86 1    
    36   17   87 1    
    37   18   19 1    
    38   18   37 1    
    39   18   88 1    
    40   19   20 am   BACKBONE|DICT|INTERRES
    41   19   89 1    
    42   20   21 2    
    43   20   22 1    
    44   22   23 1    
    45   22   24 1    
    46   22   90 1    
    47   23   91 1    
    48   23   92 1    
    49   23   93 1    
    50   24   25 am   BACKBONE|DICT|INTERRES
    51   24   94 1    
    52   25   26 2    
    53   25   27 1    
    54   27   28 1    
    55   27   29 1    
    56   27   95 1    
    57   28   96 1    
    58   28   97 1    
    59   28   98 1    
    60   29   30 am   BACKBONE|DICT|INTERRES
    61   29   99 1    
    62   30   31 2    
    63   30   32 1    
    64   32   33 1    
    65   32   34 1    
    66   32  100 1    
    67   33  101 1    
    68   33  102 1    
    69   33  103 1    
    70   34   35 am   BACKBONE|DICT|INTERRES
    71   34  104 1    
    72   35   36 2    
    73   37   38 2    
    74   37   39 am   BACKBONE|DICT|INTERRES
    75   39   40 1    
    76   39  105 1    
    77   40   41 1    
    78   40   42 1    
    79   40  106 1    
    80   41  107 1    
    81   41  108 1    
    82   41  109 1    
    83   42   43 2    
    84   42   44 am   BACKBONE|DICT|INTERRES
    85   44   45 1    
    86   44  110 1    
    87   45   46 1    
    88   45   47 1    
    89   45  111 1    
    90   46  112 1    
    91   46  113 1    
    92   46  114 1    
    93   47   48 2    
    94   47   49 am   BACKBONE|DICT|INTERRES
    95   49   50 1    
    96   49  115 1    
    97   50   51 1    
    98   50   52 1    
    99   50  116 1    
   100   51  117 1    
   101   51  118 1    
   102   51  119 1    
   103   52   53 2    
   104   52   54 am   BACKBONE|DICT|INTERRES
   105   54   55 1    
   106   54  120 1    
   107   55   56 1    
   108   55   57 1    
   109   55  121 1    
   110   56  122 1    
   111   56  123 1    
   112   56  124 1    
   113   57   58 2    
   114   57   59 am   BACKBONE|DICT|INTERRES
   115   59   60 1    
   116   59  125 1    
   117   60   61 1    
   118   60   62 1    
   119   60  126 1    
   120   61  127 1    
   121   61  128 1    
   122   61  129 1    
   123   62   63 2    
   124   62   64 am   BACKBONE|DICT|INTERRES
   125   64   65 1    
   126   64  130 1    
   127   65   66 1    
   128   65   69 1    
   129   65  131 1    
   130   66   67 am   BACKBONE|DICT|INTERRES
   131   66   68 2    
   132   67  132 1    
   133   67  133 1    
   134   69   70 1    
   135   69  134 1    
   136   69  135 1    
   137   70   71 1    
   138   71  136 1    
   139   71  137 1    
@<TRIPOS>SUBSTRUCTURE
     1 UNK         1 GROUP             0       ****    0 ROOT    
