@<TRIPOS>MOLECULE
3R137
137   139    1
SMALL
USER_CHARGES


@<TRIPOS>ATOM
      1 CA         23.4483   -6.3564   -2.8101 C.3       0 UNK        -0.2020 
      2 C          24.3000   -5.5399   -1.8503 C.2       0 UNK         0.4855 
      3 O          23.7940   -5.0680   -0.8319 O.2       0 UNK        -0.5197 
      4 N          25.5884   -5.3589   -2.1691 N.am      1 UNK        -0.4892 
      5 CA         26.5600   -4.5883   -1.3845 C.3       1 UNK         0.0835 
      6 C6         28.0087   -5.0310   -1.7263 C.3       12 UNK        -0.0855 
      7 S7         29.1875   -4.6656   -0.3844 S.3       12 UNK        -0.2931 
      8 C8         30.7571   -4.5019   -1.3055 C.3       12 UNK         0.0378 
      9 C9         30.8088   -3.2526   -2.1784 C.ar      12 UNK        -0.0802 
     10 C10        31.1463   -3.3437   -3.5325 C.ar      12 UNK        -0.0944 
     11 C11        31.1817   -2.1978   -4.3356 C.ar      12 UNK        -0.0787 
     12 C12        30.8727   -0.9529   -3.7777 C.ar      12 UNK        -0.0862 
     13 C13        30.5430   -0.8497   -2.4230 C.ar      12 UNK        -0.0733 
     14 C14        30.5299   -1.9993   -1.6290 C.ar      12 UNK        -0.0832 
     15 C15        30.1887    0.4899   -1.7975 C.3       12 UNK         0.0240 
     16 S16        28.4491    0.5059   -1.2599 S.3       12 UNK        -0.2522 
     17 C17        27.6441    1.6325   -2.4415 C.3       12 UNK        -0.0967 
     18 CA         27.8045    1.2914   -3.9464 C.3       5 UNK         0.0660 
     19 N          27.4680   -0.0958   -4.2990 N.am      5 UNK        -0.4015 
     20 C          27.6504   -0.6211   -5.5231 C.2       4 UNK         0.4946 
     21 O          28.2293   -0.0319   -6.4350 O.2       4 UNK        -0.5353 
     22 CA         27.0266   -1.9947   -5.8183 C.3       4 UNK         0.0277 
     23 CB         27.9880   -3.1419   -5.4792 C.3       4 UNK        -0.1981 
     24 N          25.7611   -2.1721   -5.1090 N.am      4 UNK        -0.4209 
     25 C          24.6053   -1.6101   -5.4921 C.2       3 UNK         0.4942 
     26 O          24.4834   -0.9371   -6.5148 O.2       3 UNK        -0.5208 
     27 CA         23.3898   -1.7969   -4.5655 C.3       3 UNK         0.0250 
     28 CB         22.6201   -3.0723   -4.9425 C.3       3 UNK        -0.1990 
     29 N          23.7540   -1.8490   -3.1477 N.am      3 UNK        -0.4232 
     30 C          24.3136   -0.8382   -2.4674 C.2       2 UNK         0.4993 
     31 O          24.4983    0.2824   -2.9420 O.2       2 UNK        -0.5286 
     32 CA         24.8150   -1.1557   -1.0467 C.3       2 UNK         0.0209 
     33 CB         23.7157   -0.8757   -0.0107 C.3       2 UNK        -0.1931 
     34 N          25.2945   -2.5365   -0.8942 N.am      2 UNK        -0.4546 
     35 C          26.3078   -3.0775   -1.5866 C.2       1 UNK         0.5154 
     36 O          26.9460   -2.4501   -2.4316 O.2       1 UNK        -0.5181 
     37 C          26.9895    2.3010   -4.7804 C.2       5 UNK         0.5014 
     38 O          27.5543    3.2871   -5.2538 O.2       5 UNK        -0.5248 
     39 N          25.6853    2.0309   -4.9481 N.am      6 UNK        -0.4434 
     40 CA         24.7703    2.8186   -5.7770 C.3       6 UNK         0.0363 
     41 CB         23.3243    2.3568   -5.5359 C.3       6 UNK        -0.1936 
     42 C          25.1209    2.7686   -7.2749 C.2       6 UNK         0.5081 
     43 O          25.0214    3.7958   -7.9469 O.2       6 UNK        -0.5248 
     44 N          25.5362    1.5923   -7.7691 N.am      7 UNK        -0.4718 
     45 CA         26.0363    1.3995   -9.1346 C.3       7 UNK         0.0273 
     46 CB         26.1517   -0.1020   -9.4407 C.3       7 UNK        -0.1935 
     47 C          27.3803    2.1094   -9.3788 C.2       7 UNK         0.5018 
     48 O          27.5599    2.7019  -10.4439 O.2       7 UNK        -0.5186 
     49 N          28.2743    2.0557   -8.3796 N.am      8 UNK        -0.4240 
     50 CA         29.5984    2.6789   -8.3291 C.3       8 UNK         0.0235 
     51 CB         29.4786    4.2202   -8.2889 C.3       8 UNK        -0.2000 
     52 C          30.5217    2.1322   -9.4335 C.2       8 UNK         0.4941 
     53 O          30.7738    0.9260   -9.4502 O.2       8 UNK        -0.5273 
     54 N          31.0369    3.0165  -10.3040 N.am      9 UNK        -0.4262 
     55 CA         31.8954    2.7300  -11.4652 C.3       9 UNK         0.0264 
     56 CB         31.0715    2.0362  -12.5711 C.3       9 UNK        -0.1955 
     57 C          33.1788    1.9491  -11.1124 C.2       9 UNK         0.5031 
     58 O          33.6070    1.0879  -11.8840 O.2       9 UNK        -0.5390 
     59 N          33.7369    2.2275   -9.9228 N.am      10 UNK        -0.4204 
     60 CA         34.8734    1.5391   -9.2922 C.3       10 UNK         0.0237 
     61 CB         36.1856    1.8786  -10.0318 C.3       10 UNK        -0.1985 
     62 C          34.6612    0.0168   -9.1256 C.2       10 UNK         0.4970 
     63 O          35.6347   -0.7382   -9.1545 O.2       10 UNK        -0.4914 
     64 N          33.3951   -0.4005   -8.9758 N.am      11 UNK        -0.4285 
     65 CA         32.9282   -1.7954   -8.9519 C.3       11 UNK         0.1007 
     66 C          33.0369   -2.5305  -10.3239 C.2       11 UNK         0.5703 
     67 N          33.2654   -1.8447  -11.4392 N.am      11 UNK        -0.7361 
     68 O          32.8784   -3.7475  -10.3896 O.2       11 UNK        -0.4986 
     69 C69        33.5028   -2.6358   -7.7724 C.3       12 UNK        -0.0947 
     70 S70        33.2593   -1.8764   -6.1309 S.3       12 UNK        -0.2240 
     71 C71        31.5244   -2.3130   -5.8127 C.3       12 UNK         0.0194 
     72 H72        23.9859   -6.6037   -3.7252 H         1 UNK         0.0906 
     73 H73        23.1388   -7.2870   -2.3351 H         1 UNK         0.0906 
     74 H74        22.5515   -5.8012   -3.0837 H         1 UNK         0.0906 
     75 H75        25.9433   -5.7599   -3.0259 H         1 UNK         0.3140 
     76 H76        26.3850   -4.8126   -0.3294 H         1 UNK         0.1085 
     77 H77        28.0421   -6.1117   -1.8744 H         1 UNK         0.0836 
     78 H78        28.3526   -4.5971   -2.6661 H         1 UNK         0.0836 
     79 H79        30.9124   -5.4023   -1.9022 H         1 UNK         0.0731 
     80 H80        31.5800   -4.4605   -0.5908 H         1 UNK         0.0731 
     81 H81        31.3744   -4.3079   -3.9658 H         1 UNK         0.1312 
     82 H82        30.8850   -0.0702   -4.4020 H         1 UNK         0.1406 
     83 H83        30.2683   -1.9206   -0.5825 H         1 UNK         0.1631 
     84 H84        30.3937    1.3176   -2.4771 H         1 UNK         0.0717 
     85 H85        30.8240    0.6511   -0.9256 H         1 UNK         0.0717 
     86 H86        26.5886    1.6697   -2.1672 H         1 UNK         0.0934 
     87 H87        28.0298    2.6355   -2.2472 H         1 UNK         0.0934 
     88 H88        28.8511    1.4367   -4.2179 H         1 UNK         0.0739 
     89 H89        27.0708   -0.6761   -3.5682 H         1 UNK         0.3093 
     90 H90        26.8226   -2.0471   -6.8896 H         1 UNK         0.0818 
     91 H91        28.8330   -3.1438   -6.1663 H         1 UNK         0.0819 
     92 H92        28.3891   -3.0510   -4.4707 H         1 UNK         0.0819 
     93 H93        27.5026   -4.1139   -5.5651 H         1 UNK         0.0819 
     94 H94        25.8152   -2.6318   -4.2091 H         1 UNK         0.3041 
     95 H95        22.7286   -0.9397   -4.7090 H         1 UNK         0.0784 
     96 H96        22.2962   -3.0362   -5.9837 H         1 UNK         0.0793 
     97 H97        23.2341   -3.9658   -4.8245 H         1 UNK         0.0793 
     98 H98        21.7256   -3.1936   -4.3310 H         1 UNK         0.0793 
     99 H99        23.6281   -2.7296   -2.6703 H         1 UNK         0.3024 
    100 H100       25.6558   -0.4893   -0.8450 H         1 UNK         0.1171 
    101 H101       24.0876   -1.0044    1.0060 H         1 UNK         0.0786 
    102 H102       23.3536    0.1502   -0.0940 H         1 UNK         0.0786 
    103 H103       22.8582   -1.5370   -0.1415 H         1 UNK         0.0786 
    104 H104       24.7503   -3.1503   -0.2993 H         1 UNK         0.2977 
    105 H105       25.2839    1.2472   -4.4389 H         1 UNK         0.3127 
    106 H106       24.8501    3.8591   -5.4552 H         1 UNK         0.0770 
    107 H107       23.1724    1.3229   -5.8451 H         1 UNK         0.0814 
    108 H108       22.6212    2.9713   -6.0996 H         1 UNK         0.0814 
    109 H109       23.0526    2.4344   -4.4830 H         1 UNK         0.0814 
    110 H110       25.5077    0.7747   -7.1695 H         1 UNK         0.2983 
    111 H111       25.3045    1.8306   -9.8214 H         1 UNK         0.0947 
    112 H112       26.4544   -0.2646  -10.4759 H         1 UNK         0.0806 
    113 H113       25.1994   -0.6126   -9.2958 H         1 UNK         0.0806 
    114 H114       26.8935   -0.5874   -8.8065 H         1 UNK         0.0806 
    115 H115       28.0642    1.4429   -7.5942 H         1 UNK         0.3000 
    116 H116       30.0397    2.3604   -7.3833 H         1 UNK         0.0850 
    117 H117       30.4518    4.6913   -8.1454 H         1 UNK         0.0810 
    118 H118       28.8506    4.5354   -7.4551 H         1 UNK         0.0810 
    119 H119       29.0369    4.6278   -9.1989 H         1 UNK         0.0810 
    120 H120       30.7702    3.9848  -10.1895 H         1 UNK         0.3040 
    121 H121       32.2256    3.6947  -11.8532 H         1 UNK         0.0766 
    122 H122       30.7543    1.0372  -12.2689 H         1 UNK         0.0812 
    123 H123       31.6527    1.9305  -13.4880 H         1 UNK         0.0812 
    124 H124       30.1780    2.6092  -12.8190 H         1 UNK         0.0812 
    125 H125       33.2974    2.9459   -9.3639 H         1 UNK         0.3205 
    126 H126       34.9514    1.9406   -8.2807 H         1 UNK         0.0754 
    127 H127       37.0518    1.4877   -9.4964 H         1 UNK         0.0769 
    128 H128       36.3231    2.9561  -10.1217 H         1 UNK         0.0769 
    129 H129       36.2044    1.4533  -11.0358 H         1 UNK         0.0769 
    130 H130       32.6462    0.2823   -9.0212 H         1 UNK         0.2981 
    131 H131       31.8537   -1.7175   -8.7851 H         1 UNK         0.0541 
    132 H132       33.3887   -0.8373  -11.4262 H         1 UNK         0.3459 
    133 H133       33.3197   -2.3407  -12.3140 H         1 UNK         0.3459 
    134 H134       34.5719   -2.8026   -7.9091 H         1 UNK         0.0612 
    135 H135       33.0530   -3.6298   -7.7539 H         1 UNK         0.0612 
    136 H136       30.8772   -1.6572   -6.3978 H         1 UNK         0.0624 
    137 H137       31.3322   -3.3292   -6.1599 H         1 UNK         0.0624 
@<TRIPOS>BOND
     1    1    2 1    
     2    1   72 1    
     3    1   73 1    
     4    1   74 1    
     5    2    3 2    
     6    2    4 am   BACKBONE|DICT|INTERRES
     7    4    5 1    
     8    4   75 1    
     9    5    6 1    
    10    5   35 1    
    11    5   76 1    
    12    6    7 1    
    13    6   77 1    
    14    6   78 1    
    15    7    8 1    
    16    8    9 1    
    17    8   79 1    
    18    8   80 1    
    19    9   10 ar   
    20    9   14 ar   
    21   10   11 ar   
    22   10   81 1    
    23   11   12 ar   
    24   11   71 1    
    25   12   13 ar   
    26   12   82 1    
    27   13   14 ar   
    28   13   15 1    
    29   14   83 1    
    30   15   16 1    
    31   15   84 1    
    32   15   85 1    
    33   16   17 1    
    34   17   18 1    
    35   17   86 1    
    36   17   87 1    
    37   18   19 1    
    38   18   37 1    
    39   18   88 1    
    40   19   20 am   BACKBONE|DICT|INTERRES
    41   19   89 1    
    42   20   21 2    
    43   20   22 1    
    44   22   23 1    
    45   22   24 1    
    46   22   90 1    
    47   23   91 1    
    48   23   92 1    
    49   23   93 1    
    50   24   25 am   BACKBONE|DICT|INTERRES
    51   24   94 1    
    52   25   26 2    
    53   25   27 1    
    54   27   28 1    
    55   27   29 1    
    56   27   95 1    
    57   28   96 1    
    58   28   97 1    
    59   28   98 1    
    60   29   30 am   BACKBONE|DICT|INTERRES
    61   29   99 1    
    62   30   31 2    
    63   30   32 1    
    64   32   33 1    
    65   32   34 1    
    66   32  100 1    
    67   33  101 1    
    68   33  102 1    
    69   33  103 1    
    70   34   35 am   BACKBONE|DICT|INTERRES
    71   34  104 1    
    72   35   36 2    
    73   37   38 2    
    74   37   39 am   BACKBONE|DICT|INTERRES
    75   39   40 1    
    76   39  105 1    
    77   40   41 1    
    78   40   42 1    
    79   40  106 1    
    80   41  107 1    
    81   41  108 1    
    82   41  109 1    
    83   42   43 2    
    84   42   44 am   BACKBONE|DICT|INTERRES
    85   44   45 1    
    86   44  110 1    
    87   45   46 1    
    88   45   47 1    
    89   45  111 1    
    90   46  112 1    
    91   46  113 1    
    92   46  114 1    
    93   47   48 2    
    94   47   49 am   BACKBONE|DICT|INTERRES
    95   49   50 1    
    96   49  115 1    
    97   50   51 1    
    98   50   52 1    
    99   50  116 1    
   100   51  117 1    
   101   51  118 1    
   102   51  119 1    
   103   52   53 2    
   104   52   54 am   BACKBONE|DICT|INTERRES
   105   54   55 1    
   106   54  120 1    
   107   55   56 1    
   108   55   57 1    
   109   55  121 1    
   110   56  122 1    
   111   56  123 1    
   112   56  124 1    
   113   57   58 2    
   114   57   59 am   BACKBONE|DICT|INTERRES
   115   59   60 1    
   116   59  125 1    
   117   60   61 1    
   118   60   62 1    
   119   60  126 1    
   120   61  127 1    
   121   61  128 1    
   122   61  129 1    
   123   62   63 2    
   124   62   64 am   BACKBONE|DICT|INTERRES
   125   64   65 1    
   126   64  130 1    
   127   65   66 1    
   128   65   69 1    
   129   65  131 1    
   130   66   67 am   BACKBONE|DICT|INTERRES
   131   66   68 2    
   132   67  132 1    
   133   67  133 1    
   134   69   70 1    
   135   69  134 1    
   136   69  135 1    
   137   70   71 1    
   138   71  136 1    
   139   71  137 1    
@<TRIPOS>SUBSTRUCTURE
     1 UNK         1 GROUP             0       ****    0 ROOT    
