@<TRIPOS>MOLECULE
3R137
137   139    1
SMALL
USER_CHARGES


@<TRIPOS>ATOM
      1 CA         22.3480   -3.5227   -1.4178 C.3       0 UNK        -0.2020 
      2 C          23.8296   -3.3668   -1.1135 C.2       0 UNK         0.4855 
      3 O          24.2019   -2.5188   -0.3015 O.2       0 UNK        -0.5197 
      4 N          24.6849   -4.1686   -1.7641 N.am      1 UNK        -0.4892 
      5 CA         26.1469   -4.1130   -1.6363 C.3       1 UNK         0.0835 
      6 C6         26.8420   -5.2589   -2.4185 C.3       12 UNK        -0.0855 
      7 S7         28.2198   -6.0506   -1.5137 S.3       12 UNK        -0.2931 
      8 C8         29.5592   -4.7996   -1.4908 C.3       12 UNK         0.0378 
      9 C9         30.0020   -4.2455   -2.8464 C.ar      12 UNK        -0.0802 
     10 C10        30.6423   -3.0026   -2.8872 C.ar      12 UNK        -0.0944 
     11 C11        31.0613   -2.4383   -4.0971 C.ar      12 UNK        -0.0787 
     12 C12        30.8102   -3.1327   -5.2878 C.ar      12 UNK        -0.0862 
     13 C13        30.1695   -4.3748   -5.2661 C.ar      12 UNK        -0.0733 
     14 C14        29.7994   -4.9393   -4.0435 C.ar      12 UNK        -0.0832 
     15 C15        29.8184   -5.0932   -6.5614 C.3       12 UNK         0.0240 
     16 S16        28.5387   -4.2394   -7.5520 S.3       12 UNK        -0.2522 
     17 C17        27.3704   -3.5223   -6.3315 C.3       12 UNK        -0.0967 
     18 CA         26.7257   -2.1884   -6.7908 C.3       5 UNK         0.0660 
     19 N          25.6908   -1.7631   -5.8446 N.am      5 UNK        -0.4015 
     20 C          24.7024   -0.9045   -6.1252 C.2       4 UNK         0.4946 
     21 O          24.6074   -0.2995   -7.1937 O.2       4 UNK        -0.5353 
     22 CA         23.6288   -0.7011   -5.0481 C.3       4 UNK         0.0277 
     23 CB         22.7857   -1.9763   -4.8675 C.3       4 UNK        -0.1981 
     24 N          24.1943   -0.3042   -3.7544 N.am      4 UNK        -0.4209 
     25 C          23.7761    0.7564   -3.0440 C.2       3 UNK         0.4942 
     26 O          22.9293    1.5542   -3.4495 O.2       3 UNK        -0.5208 
     27 CA         24.3562    0.9712   -1.6316 C.3       3 UNK         0.0250 
     28 CB         23.2725    0.7426   -0.5639 C.3       3 UNK        -0.1990 
     29 N          25.5072    0.1142   -1.3397 N.am      3 UNK        -0.4232 
     30 C          26.7631    0.4022   -1.7119 C.2       2 UNK         0.4993 
     31 O          27.0766    1.4587   -2.2570 O.2       2 UNK        -0.5286 
     32 CA         27.8566   -0.6575   -1.4672 C.3       2 UNK         0.0209 
     33 CB         28.7714   -0.2377   -0.3058 C.3       2 UNK        -0.1931 
     34 N          27.3470   -2.0084   -1.2142 N.am      2 UNK        -0.4546 
     35 C          26.6565   -2.7357   -2.1008 C.2       1 UNK         0.5154 
     36 O          26.3614   -2.3346   -3.2304 O.2       1 UNK        -0.5181 
     37 C          27.7674   -1.0805   -7.0557 C.2       5 UNK         0.5014 
     38 O          28.3181   -1.0338   -8.1560 O.2       5 UNK        -0.5248 
     39 N          28.0038   -0.1922   -6.0771 N.am      6 UNK        -0.4434 
     40 CA         29.0293    0.8583   -6.1190 C.3       6 UNK         0.0363 
     41 CB         28.9622    1.7059   -4.8415 C.3       6 UNK        -0.1936 
     42 C          28.9816    1.7755   -7.3503 C.2       6 UNK         0.5081 
     43 O          30.0391    2.1425   -7.8626 O.2       6 UNK        -0.5248 
     44 N          27.7683    2.1047   -7.8115 N.am      7 UNK        -0.4718 
     45 CA         27.5309    2.9309   -8.9968 C.3       7 UNK         0.0273 
     46 CB         26.0824    3.4444   -8.9680 C.3       7 UNK        -0.1935 
     47 C          27.8135    2.1979  -10.3202 C.2       7 UNK         0.5018 
     48 O          28.1588    2.8537  -11.3034 O.2       7 UNK        -0.5186 
     49 N          27.6587    0.8670  -10.3297 N.am      8 UNK        -0.4240 
     50 CA         27.9135    0.0117  -11.4898 C.3       8 UNK         0.0235 
     51 CB         27.0039   -1.2271  -11.4262 C.3       8 UNK        -0.2000 
     52 C          29.3903   -0.3995  -11.5605 C.2       8 UNK         0.4941 
     53 O          29.9855   -0.3490  -12.6371 O.2       8 UNK        -0.5273 
     54 N          29.9546   -0.7870  -10.4092 N.am      9 UNK        -0.4262 
     55 CA         31.3518   -1.1931  -10.2517 C.3       9 UNK         0.0264 
     56 CB         31.4901   -1.9623   -8.9308 C.3       9 UNK        -0.1955 
     57 C          32.3443   -0.0183  -10.2840 C.2       9 UNK         0.5031 
     58 O          33.5269   -0.2520  -10.5377 O.2       9 UNK        -0.5390 
     59 N          31.8553    1.2018  -10.0133 N.am      10 UNK        -0.4204 
     60 CA         32.6047    2.4533   -9.8656 C.3       10 UNK         0.0237 
     61 CB         33.2951    2.8597  -11.1859 C.3       10 UNK        -0.1985 
     62 C          33.5608    2.3944   -8.6601 C.2       10 UNK         0.4970 
     63 O          34.7590    2.6459   -8.8045 O.2       10 UNK        -0.4914 
     64 N          33.0039    2.0515   -7.4901 N.am      11 UNK        -0.4285 
     65 CA         33.7347    1.9776   -6.2118 C.3       11 UNK         0.1007 
     66 C          34.1886    3.3578   -5.6497 C.2       11 UNK         0.5703 
     67 N          33.6379    4.4778   -6.1044 N.am      11 UNK        -0.7361 
     68 O          35.0619    3.4111   -4.7869 O.2       11 UNK        -0.4986 
     69 C69        32.9509    1.1907   -5.1286 C.3       12 UNK        -0.0947 
     70 S70        32.6167   -0.5458   -5.5688 S.3       12 UNK        -0.2240 
     71 C71        31.7308   -1.0627   -4.0562 C.3       12 UNK         0.0194 
     72 H72        22.1671   -4.2513   -2.2078 H         1 UNK         0.0906 
     73 H73        21.8151   -3.8483   -0.5249 H         1 UNK         0.0906 
     74 H74        21.9289   -2.5681   -1.7348 H         1 UNK         0.0906 
     75 H75        24.3259   -4.8359   -2.4318 H         1 UNK         0.3140 
     76 H76        26.3641   -4.2278   -0.5720 H         1 UNK         0.1085 
     77 H77        27.1625   -4.9495   -3.4143 H         1 UNK         0.0836 
     78 H78        26.1290   -6.0637   -2.6043 H         1 UNK         0.0836 
     79 H79        29.2537   -3.9821   -0.8379 H         1 UNK         0.0731 
     80 H80        30.4299   -5.2510   -1.0136 H         1 UNK         0.0731 
     81 H81        30.8130   -2.4636   -1.9650 H         1 UNK         0.1312 
     82 H82        31.0835   -2.7069   -6.2403 H         1 UNK         0.1406 
     83 H83        29.3176   -5.9068   -4.0339 H         1 UNK         0.1631 
     84 H84        29.4714   -6.1069   -6.3558 H         1 UNK         0.0717 
     85 H85        30.7184   -5.1997   -7.1685 H         1 UNK         0.0717 
     86 H86        26.5920   -4.2661   -6.1545 H         1 UNK         0.0934 
     87 H87        27.8501   -3.3665   -5.3667 H         1 UNK         0.0934 
     88 H88        26.2302   -2.3796   -7.7455 H         1 UNK         0.0739 
     89 H89        25.7587   -2.1589   -4.9089 H         1 UNK         0.3093 
     90 H90        22.9642    0.0786   -5.4263 H         1 UNK         0.0818 
     91 H91        21.9380   -1.7953   -4.2066 H         1 UNK         0.0819 
     92 H92        22.3821   -2.3183   -5.8216 H         1 UNK         0.0819 
     93 H93        23.3689   -2.7956   -4.4456 H         1 UNK         0.0819 
     94 H94        24.9223   -0.8959   -3.3698 H         1 UNK         0.3041 
     95 H95        24.6675    2.0163   -1.5667 H         1 UNK         0.0784 
     96 H96        22.4464    1.4435   -0.6914 H         1 UNK         0.0793 
     97 H97        22.8534   -0.2621   -0.6188 H         1 UNK         0.0793 
     98 H98        23.6666    0.8884    0.4420 H         1 UNK         0.0793 
     99 H99        25.3105   -0.7742   -0.8903 H         1 UNK         0.3024 
    100 H100       28.4597   -0.7026   -2.3767 H         1 UNK         0.1171 
    101 H101       29.2002    0.7497   -0.4838 H         1 UNK         0.0786 
    102 H102       29.6034   -0.9312   -0.1830 H         1 UNK         0.0786 
    103 H103       28.2282   -0.1914    0.6389 H         1 UNK         0.0786 
    104 H104       27.5011   -2.3809   -0.2880 H         1 UNK         0.2977 
    105 H105       27.4902   -0.2913   -5.2142 H         1 UNK         0.3127 
    106 H106       29.9915    0.3495   -6.1468 H         1 UNK         0.0770 
    107 H107       27.9901    2.1876   -4.7303 H         1 UNK         0.0814 
    108 H108       29.7133    2.4967   -4.8521 H         1 UNK         0.0814 
    109 H109       29.1417    1.1060   -3.9514 H         1 UNK         0.0814 
    110 H110       26.9561    1.7398   -7.3339 H         1 UNK         0.2983 
    111 H111       28.2006    3.7931   -8.9528 H         1 UNK         0.0947 
    112 H112       25.8762    4.0806   -9.8299 H         1 UNK         0.0806 
    113 H113       25.8899    4.0395   -8.0751 H         1 UNK         0.0806 
    114 H114       25.3626    2.6247   -8.9876 H         1 UNK         0.0806 
    115 H115       27.4503    0.3971   -9.4568 H         1 UNK         0.3000 
    116 H116       27.6717    0.5600  -12.4033 H         1 UNK         0.0850 
    117 H117       27.1632   -1.8712  -12.2920 H         1 UNK         0.0810 
    118 H118       25.9511   -0.9445  -11.4222 H         1 UNK         0.0810 
    119 H119       27.1918   -1.8275  -10.5351 H         1 UNK         0.0810 
    120 H120       29.3691   -0.8418   -9.5749 H         1 UNK         0.3040 
    121 H121       31.6110   -1.8661  -11.0717 H         1 UNK         0.0766 
    122 H122       32.5218   -2.2696   -8.7542 H         1 UNK         0.0812 
    123 H123       30.8770   -2.8631   -8.9312 H         1 UNK         0.0812 
    124 H124       31.1805   -1.3454   -8.0871 H         1 UNK         0.0812 
    125 H125       30.8798    1.2602   -9.7489 H         1 UNK         0.3205 
    126 H126       31.8683    3.2248   -9.6357 H         1 UNK         0.0754 
    127 H127       33.7488    3.8475  -11.0980 H         1 UNK         0.0769 
    128 H128       32.5808    2.9027  -12.0082 H         1 UNK         0.0769 
    129 H129       34.0872    2.1647  -11.4660 H         1 UNK         0.0769 
    130 H130       32.0018    1.8972   -7.4577 H         1 UNK         0.2981 
    131 H131       34.6552    1.4237   -6.4066 H         1 UNK         0.0541 
    132 H132       32.9171    4.4458   -6.8068 H         1 UNK         0.3459 
    133 H133       33.9446    5.3636   -5.7344 H         1 UNK         0.3459 
    134 H134       32.0028    1.6869   -4.9179 H         1 UNK         0.0612 
    135 H135       33.5065    1.1810   -4.1887 H         1 UNK         0.0612 
    136 H136       32.4416   -1.0360   -3.2288 H         1 UNK         0.0624 
    137 H137       30.9644   -0.3237   -3.8270 H         1 UNK         0.0624 
@<TRIPOS>BOND
     1    1    2 1    
     2    1   72 1    
     3    1   73 1    
     4    1   74 1    
     5    2    3 2    
     6    2    4 am   BACKBONE|DICT|INTERRES
     7    4    5 1    
     8    4   75 1    
     9    5    6 1    
    10    5   35 1    
    11    5   76 1    
    12    6    7 1    
    13    6   77 1    
    14    6   78 1    
    15    7    8 1    
    16    8    9 1    
    17    8   79 1    
    18    8   80 1    
    19    9   10 ar   
    20    9   14 ar   
    21   10   11 ar   
    22   10   81 1    
    23   11   12 ar   
    24   11   71 1    
    25   12   13 ar   
    26   12   82 1    
    27   13   14 ar   
    28   13   15 1    
    29   14   83 1    
    30   15   16 1    
    31   15   84 1    
    32   15   85 1    
    33   16   17 1    
    34   17   18 1    
    35   17   86 1    
    36   17   87 1    
    37   18   19 1    
    38   18   37 1    
    39   18   88 1    
    40   19   20 am   BACKBONE|DICT|INTERRES
    41   19   89 1    
    42   20   21 2    
    43   20   22 1    
    44   22   23 1    
    45   22   24 1    
    46   22   90 1    
    47   23   91 1    
    48   23   92 1    
    49   23   93 1    
    50   24   25 am   BACKBONE|DICT|INTERRES
    51   24   94 1    
    52   25   26 2    
    53   25   27 1    
    54   27   28 1    
    55   27   29 1    
    56   27   95 1    
    57   28   96 1    
    58   28   97 1    
    59   28   98 1    
    60   29   30 am   BACKBONE|DICT|INTERRES
    61   29   99 1    
    62   30   31 2    
    63   30   32 1    
    64   32   33 1    
    65   32   34 1    
    66   32  100 1    
    67   33  101 1    
    68   33  102 1    
    69   33  103 1    
    70   34   35 am   BACKBONE|DICT|INTERRES
    71   34  104 1    
    72   35   36 2    
    73   37   38 2    
    74   37   39 am   BACKBONE|DICT|INTERRES
    75   39   40 1    
    76   39  105 1    
    77   40   41 1    
    78   40   42 1    
    79   40  106 1    
    80   41  107 1    
    81   41  108 1    
    82   41  109 1    
    83   42   43 2    
    84   42   44 am   BACKBONE|DICT|INTERRES
    85   44   45 1    
    86   44  110 1    
    87   45   46 1    
    88   45   47 1    
    89   45  111 1    
    90   46  112 1    
    91   46  113 1    
    92   46  114 1    
    93   47   48 2    
    94   47   49 am   BACKBONE|DICT|INTERRES
    95   49   50 1    
    96   49  115 1    
    97   50   51 1    
    98   50   52 1    
    99   50  116 1    
   100   51  117 1    
   101   51  118 1    
   102   51  119 1    
   103   52   53 2    
   104   52   54 am   BACKBONE|DICT|INTERRES
   105   54   55 1    
   106   54  120 1    
   107   55   56 1    
   108   55   57 1    
   109   55  121 1    
   110   56  122 1    
   111   56  123 1    
   112   56  124 1    
   113   57   58 2    
   114   57   59 am   BACKBONE|DICT|INTERRES
   115   59   60 1    
   116   59  125 1    
   117   60   61 1    
   118   60   62 1    
   119   60  126 1    
   120   61  127 1    
   121   61  128 1    
   122   61  129 1    
   123   62   63 2    
   124   62   64 am   BACKBONE|DICT|INTERRES
   125   64   65 1    
   126   64  130 1    
   127   65   66 1    
   128   65   69 1    
   129   65  131 1    
   130   66   67 am   BACKBONE|DICT|INTERRES
   131   66   68 2    
   132   67  132 1    
   133   67  133 1    
   134   69   70 1    
   135   69  134 1    
   136   69  135 1    
   137   70   71 1    
   138   71  136 1    
   139   71  137 1    
@<TRIPOS>SUBSTRUCTURE
     1 UNK         1 GROUP             0       ****    0 ROOT    
