@<TRIPOS>MOLECULE
3R137
137   139    1
SMALL
USER_CHARGES


@<TRIPOS>ATOM
      1 CA         29.1567   -5.3089   -8.8845 C.3       0 UNK        -0.2020 
      2 C          29.1545   -5.7218   -7.4204 C.2       0 UNK         0.4855 
      3 O          28.8476   -6.8721   -7.1077 O.2       0 UNK        -0.5197 
      4 N          29.5020   -4.7907   -6.5230 N.am      1 UNK        -0.4892 
      5 CA         29.5717   -4.9913   -5.0701 C.3       1 UNK         0.0835 
      6 C6         30.3113   -3.8112   -4.3893 C.3       12 UNK        -0.0855 
      7 S7         31.1413   -4.2907   -2.8363 S.3       12 UNK        -0.2931 
      8 C8         30.0752   -3.4777   -1.5915 C.3       12 UNK         0.0378 
      9 C9         30.1519   -1.9488   -1.5249 C.ar      12 UNK        -0.0802 
     10 C10        31.0351   -1.1912   -2.3059 C.ar      12 UNK        -0.0944 
     11 C11        31.0642    0.2018   -2.2089 C.ar      12 UNK        -0.0787 
     12 C12        30.2234    0.8484   -1.3009 C.ar      12 UNK        -0.0862 
     13 C13        29.3309    0.1106   -0.5175 C.ar      12 UNK        -0.0733 
     14 C14        29.3007   -1.2826   -0.6365 C.ar      12 UNK        -0.0832 
     15 C15        28.4009    0.8115    0.4629 C.3       12 UNK         0.0240 
     16 S16        26.7929    1.2109   -0.2953 S.3       12 UNK        -0.2522 
     17 C17        27.2293    2.6299   -1.3548 C.3       12 UNK        -0.0967 
     18 CA         27.3741    2.2400   -2.8503 C.3       5 UNK         0.0660 
     19 N          26.0941    1.8787   -3.4607 N.am      5 UNK        -0.4015 
     20 C          25.7443    0.6575   -3.8744 C.2       4 UNK         0.4946 
     21 O          26.4041   -0.3657   -3.6783 O.2       4 UNK        -0.5353 
     22 CA         24.4474    0.5805   -4.6878 C.3       4 UNK         0.0277 
     23 CB         24.6307    1.2158   -6.0832 C.3       4 UNK        -0.1981 
     24 N          24.0506   -0.8192   -4.8139 N.am      4 UNK        -0.4209 
     25 C          22.8342   -1.2587   -5.1509 C.2       3 UNK         0.4942 
     26 O          21.8975   -0.5031   -5.4159 O.2       3 UNK        -0.5208 
     27 CA         22.5754   -2.7793   -5.1655 C.3       3 UNK         0.0250 
     28 CB         22.0698   -3.2507   -6.5449 C.3       3 UNK        -0.1990 
     29 N          23.6748   -3.6317   -4.6841 N.am      3 UNK        -0.4232 
     30 C          24.8533   -3.8815   -5.2718 C.2       2 UNK         0.4993 
     31 O          25.2413   -3.3535   -6.3154 O.2       2 UNK        -0.5286 
     32 CA         25.7336   -4.9287   -4.5821 C.3       2 UNK         0.0209 
     33 CB         25.2281   -6.3521   -4.8924 C.3       2 UNK        -0.1931 
     34 N          27.1106   -4.7770   -5.0427 N.am      2 UNK        -0.4546 
     35 C          28.1938   -5.2545   -4.4177 C.2       1 UNK         0.5154 
     36 O          28.1342   -5.8951   -3.3667 O.2       1 UNK        -0.5181 
     37 C          27.9600    3.3797   -3.7034 C.2       5 UNK         0.5014 
     38 O          28.1606    4.4909   -3.2093 O.2       5 UNK        -0.5248 
     39 N          28.1565    3.0991   -4.9951 N.am      6 UNK        -0.4434 
     40 CA         28.5855    4.0283   -6.0351 C.3       6 UNK         0.0363 
     41 CB         27.4242    4.9751   -6.4073 C.3       6 UNK        -0.1936 
     42 C          29.0421    3.2020   -7.2440 C.2       6 UNK         0.5081 
     43 O          28.9579    1.9722   -7.2063 O.2       6 UNK        -0.5248 
     44 N          29.4643    3.8839   -8.3181 N.am      7 UNK        -0.4718 
     45 CA         29.9572    3.2995   -9.5755 C.3       7 UNK         0.0273 
     46 CB         30.3220    4.4314  -10.5485 C.3       7 UNK        -0.1935 
     47 C          29.0105    2.2915  -10.2585 C.2       7 UNK         0.5018 
     48 O          29.4877    1.4270  -10.9929 O.2       7 UNK        -0.5186 
     49 N          27.7045    2.3661   -9.9630 N.am      8 UNK        -0.4240 
     50 CA         26.6965    1.3664  -10.3354 C.3       8 UNK         0.0235 
     51 CB         25.3058    1.8769   -9.9253 C.3       8 UNK        -0.2000 
     52 C          26.9566   -0.0351   -9.7412 C.2       8 UNK         0.4941 
     53 O          26.5397   -1.0244  -10.3428 O.2       8 UNK        -0.5273 
     54 N          27.6652   -0.0976   -8.6050 N.am      9 UNK        -0.4262 
     55 CA         28.1541   -1.3191   -7.9637 C.3       9 UNK         0.0264 
     56 CB         27.8409   -1.2481   -6.4607 C.3       9 UNK        -0.1955 
     57 C          29.6632   -1.5143   -8.1998 C.2       9 UNK         0.5031 
     58 O          30.2917   -2.2700   -7.4553 O.2       9 UNK        -0.5390 
     59 N          30.2270   -0.8404   -9.2129 N.am      10 UNK        -0.4204 
     60 CA         31.6378   -0.7906   -9.6081 C.3       10 UNK         0.0237 
     61 CB         32.2000   -2.1865   -9.9499 C.3       10 UNK        -0.1985 
     62 C          32.5239   -0.0407   -8.6008 C.2       10 UNK         0.4970 
     63 O          33.1266    0.9658   -8.9746 O.2       10 UNK        -0.4914 
     64 N          32.5946   -0.5443   -7.3615 N.am      11 UNK        -0.4285 
     65 CA         33.4305   -0.0337   -6.2581 C.3       11 UNK         0.1007 
     66 C          34.9674   -0.0626   -6.5346 C.2       11 UNK         0.5703 
     67 N          35.4539   -0.8839   -7.4582 N.am      11 UNK        -0.7361 
     68 O          35.7403    0.6348   -5.8815 O.2       11 UNK        -0.4986 
     69 C69        32.9228    1.3332   -5.7068 C.3       12 UNK        -0.0947 
     70 S70        31.3630    1.1379   -4.7860 S.3       12 UNK        -0.2240 
     71 C71        32.0127    0.9938   -3.0916 C.3       12 UNK         0.0194 
     72 H72        29.4814   -6.1393   -9.5121 H         1 UNK         0.0906 
     73 H73        28.1529   -5.0178   -9.1950 H         1 UNK         0.0906 
     74 H74        29.8317   -4.4720   -9.0657 H         1 UNK         0.0906 
     75 H75        29.7825   -3.8652   -6.8511 H         1 UNK         0.3140 
     76 H76        30.1627   -5.8974   -4.9183 H         1 UNK         0.1085 
     77 H77        29.6452   -2.9617   -4.2262 H         1 UNK         0.0836 
     78 H78        31.0989   -3.4367   -5.0455 H         1 UNK         0.0836 
     79 H79        30.3451   -3.8755   -0.6123 H         1 UNK         0.0731 
     80 H80        29.0409   -3.7763   -1.7679 H         1 UNK         0.0731 
     81 H81        31.7037   -1.6690   -3.0066 H         1 UNK         0.1312 
     82 H82        30.2537    1.9258   -1.2161 H         1 UNK         0.1406 
     83 H83        28.6083   -1.8522   -0.0309 H         1 UNK         0.1631 
     84 H84        28.8654    1.7181    0.8537 H         1 UNK         0.0717 
     85 H85        28.2273    0.1687    1.3272 H         1 UNK         0.0717 
     86 H86        26.4602    3.3949   -1.2340 H         1 UNK         0.0934 
     87 H87        28.1497    3.0788   -0.9781 H         1 UNK         0.0934 
     88 H88        28.0745    1.4064   -2.9307 H         1 UNK         0.0739 
     89 H89        25.4897    2.6576   -3.6807 H         1 UNK         0.3093 
     90 H90        23.6706    1.1172   -4.1388 H         1 UNK         0.0818 
     91 H91        24.9349    2.2603   -6.0110 H         1 UNK         0.0819 
     92 H92        25.3895    0.6961   -6.6673 H         1 UNK         0.0819 
     93 H93        23.7037    1.1962   -6.6560 H         1 UNK         0.0819 
     94 H94        24.7829   -1.4800   -4.5838 H         1 UNK         0.3041 
     95 H95        21.7618   -2.9374   -4.4568 H         1 UNK         0.0784 
     96 H96        21.1604   -2.7207   -6.8302 H         1 UNK         0.0793 
     97 H97        22.8045   -3.0724   -7.3298 H         1 UNK         0.0793 
     98 H98        21.8348   -4.3147   -6.5398 H         1 UNK         0.0793 
     99 H99        23.4779   -4.1117   -3.8164 H         1 UNK         0.3024 
    100 H100       25.7014   -4.7513   -3.5045 H         1 UNK         0.1171 
    101 H101       25.2739   -6.5681   -5.9606 H         1 UNK         0.0786 
    102 H102       25.8181   -7.1086   -4.3750 H         1 UNK         0.0786 
    103 H103       24.1927   -6.4835   -4.5763 H         1 UNK         0.0786 
    104 H104       27.2126   -4.2425   -5.8964 H         1 UNK         0.2977 
    105 H105       28.0579    2.1469   -5.3289 H         1 UNK         0.3127 
    106 H106       29.4391    4.6036   -5.6714 H         1 UNK         0.0770 
    107 H107       27.7233    5.6987   -7.1660 H         1 UNK         0.0814 
    108 H108       27.0843    5.5492   -5.5456 H         1 UNK         0.0814 
    109 H109       26.5671    4.4252   -6.7979 H         1 UNK         0.0814 
    110 H110       29.4861    4.8924   -8.2626 H         1 UNK         0.2983 
    111 H111       30.8703    2.7516   -9.3329 H         1 UNK         0.0947 
    112 H112       30.7178    4.0310  -11.4831 H         1 UNK         0.0806 
    113 H113       31.0882    5.0842  -10.1305 H         1 UNK         0.0806 
    114 H114       29.4552    5.0445  -10.7978 H         1 UNK         0.0806 
    115 H115       27.4029    3.1128   -9.3547 H         1 UNK         0.3000 
    116 H116       26.7184    1.2646  -11.4225 H         1 UNK         0.0850 
    117 H117       25.2409    2.0550   -8.8521 H         1 UNK         0.0810 
    118 H118       24.5313    1.1534  -10.1834 H         1 UNK         0.0810 
    119 H119       25.0587    2.8080  -10.4353 H         1 UNK         0.0810 
    120 H120       28.0057    0.7668   -8.1850 H         1 UNK         0.3040 
    121 H121       27.6467   -2.1936   -8.3753 H         1 UNK         0.0766 
    122 H122       26.7728   -1.1305   -6.2903 H         1 UNK         0.0812 
    123 H123       28.3557   -0.4185   -5.9748 H         1 UNK         0.0812 
    124 H124       28.1399   -2.1601   -5.9470 H         1 UNK         0.0812 
    125 H125       29.6308   -0.2223   -9.7528 H         1 UNK         0.3205 
    126 H126       31.6570   -0.2079  -10.5305 H         1 UNK         0.0754 
    127 H127       33.2133   -2.1083  -10.3456 H         1 UNK         0.0769 
    128 H128       31.5940   -2.6793  -10.7102 H         1 UNK         0.0769 
    129 H129       32.2437   -2.8443   -9.0818 H         1 UNK         0.0769 
    130 H130       32.0043   -1.3432   -7.1514 H         1 UNK         0.2981 
    131 H131       33.3137   -0.7647   -5.4573 H         1 UNK         0.0541 
    132 H132       34.8392   -1.4781   -7.9898 H         1 UNK         0.3459 
    133 H133       36.4478   -0.9072   -7.6221 H         1 UNK         0.3459 
    134 H134       32.7658    2.0478   -6.5155 H         1 UNK         0.0612 
    135 H135       33.6488    1.7995   -5.0393 H         1 UNK         0.0612 
    136 H136       32.9819    0.4928   -3.1062 H         1 UNK         0.0624 
    137 H137       32.1852    1.9919   -2.6865 H         1 UNK         0.0624 
@<TRIPOS>BOND
     1    1    2 1    
     2    1   72 1    
     3    1   73 1    
     4    1   74 1    
     5    2    3 2    
     6    2    4 am   BACKBONE|DICT|INTERRES
     7    4    5 1    
     8    4   75 1    
     9    5    6 1    
    10    5   35 1    
    11    5   76 1    
    12    6    7 1    
    13    6   77 1    
    14    6   78 1    
    15    7    8 1    
    16    8    9 1    
    17    8   79 1    
    18    8   80 1    
    19    9   10 ar   
    20    9   14 ar   
    21   10   11 ar   
    22   10   81 1    
    23   11   12 ar   
    24   11   71 1    
    25   12   13 ar   
    26   12   82 1    
    27   13   14 ar   
    28   13   15 1    
    29   14   83 1    
    30   15   16 1    
    31   15   84 1    
    32   15   85 1    
    33   16   17 1    
    34   17   18 1    
    35   17   86 1    
    36   17   87 1    
    37   18   19 1    
    38   18   37 1    
    39   18   88 1    
    40   19   20 am   BACKBONE|DICT|INTERRES
    41   19   89 1    
    42   20   21 2    
    43   20   22 1    
    44   22   23 1    
    45   22   24 1    
    46   22   90 1    
    47   23   91 1    
    48   23   92 1    
    49   23   93 1    
    50   24   25 am   BACKBONE|DICT|INTERRES
    51   24   94 1    
    52   25   26 2    
    53   25   27 1    
    54   27   28 1    
    55   27   29 1    
    56   27   95 1    
    57   28   96 1    
    58   28   97 1    
    59   28   98 1    
    60   29   30 am   BACKBONE|DICT|INTERRES
    61   29   99 1    
    62   30   31 2    
    63   30   32 1    
    64   32   33 1    
    65   32   34 1    
    66   32  100 1    
    67   33  101 1    
    68   33  102 1    
    69   33  103 1    
    70   34   35 am   BACKBONE|DICT|INTERRES
    71   34  104 1    
    72   35   36 2    
    73   37   38 2    
    74   37   39 am   BACKBONE|DICT|INTERRES
    75   39   40 1    
    76   39  105 1    
    77   40   41 1    
    78   40   42 1    
    79   40  106 1    
    80   41  107 1    
    81   41  108 1    
    82   41  109 1    
    83   42   43 2    
    84   42   44 am   BACKBONE|DICT|INTERRES
    85   44   45 1    
    86   44  110 1    
    87   45   46 1    
    88   45   47 1    
    89   45  111 1    
    90   46  112 1    
    91   46  113 1    
    92   46  114 1    
    93   47   48 2    
    94   47   49 am   BACKBONE|DICT|INTERRES
    95   49   50 1    
    96   49  115 1    
    97   50   51 1    
    98   50   52 1    
    99   50  116 1    
   100   51  117 1    
   101   51  118 1    
   102   51  119 1    
   103   52   53 2    
   104   52   54 am   BACKBONE|DICT|INTERRES
   105   54   55 1    
   106   54  120 1    
   107   55   56 1    
   108   55   57 1    
   109   55  121 1    
   110   56  122 1    
   111   56  123 1    
   112   56  124 1    
   113   57   58 2    
   114   57   59 am   BACKBONE|DICT|INTERRES
   115   59   60 1    
   116   59  125 1    
   117   60   61 1    
   118   60   62 1    
   119   60  126 1    
   120   61  127 1    
   121   61  128 1    
   122   61  129 1    
   123   62   63 2    
   124   62   64 am   BACKBONE|DICT|INTERRES
   125   64   65 1    
   126   64  130 1    
   127   65   66 1    
   128   65   69 1    
   129   65  131 1    
   130   66   67 am   BACKBONE|DICT|INTERRES
   131   66   68 2    
   132   67  132 1    
   133   67  133 1    
   134   69   70 1    
   135   69  134 1    
   136   69  135 1    
   137   70   71 1    
   138   71  136 1    
   139   71  137 1    
@<TRIPOS>SUBSTRUCTURE
     1 UNK         1 GROUP             0       ****    0 ROOT    
