@<TRIPOS>MOLECULE
3R137
137   139    1
SMALL
USER_CHARGES


@<TRIPOS>ATOM
      1 CA         30.5816   -5.6705   -4.8444 C.3       0 UNK        -0.2020 
      2 C          29.2515   -5.9341   -4.1543 C.2       0 UNK         0.4855 
      3 O          28.8490   -7.0891   -4.0170 O.2       0 UNK        -0.5197 
      4 N          28.5634   -4.8690   -3.7233 N.am      1 UNK        -0.4892 
      5 CA         27.2545   -4.9280   -3.0562 C.3       1 UNK         0.0835 
      6 C6         27.0091   -3.6545   -2.1981 C.3       12 UNK        -0.0855 
      7 S7         27.4389   -3.8852   -0.4399 S.3       12 UNK        -0.2931 
      8 C8         29.2593   -3.9825   -0.4591 C.3       12 UNK         0.0378 
      9 C9         29.9247   -2.7255   -1.0043 C.ar      12 UNK        -0.0802 
     10 C10        30.7871   -2.8112   -2.0996 C.ar      12 UNK        -0.0944 
     11 C11        31.4227   -1.6717   -2.5988 C.ar      12 UNK        -0.0787 
     12 C12        31.1975   -0.4337   -1.9876 C.ar      12 UNK        -0.0862 
     13 C13        30.3404   -0.3354   -0.8853 C.ar      12 UNK        -0.0733 
     14 C14        29.7106   -1.4847   -0.3974 C.ar      12 UNK        -0.0832 
     15 C15        30.1023    1.0029   -0.2009 C.3       12 UNK         0.0240 
     16 S16        28.4739    1.7007   -0.6242 S.3       12 UNK        -0.2522 
     17 C17        28.7576    2.3081   -2.3199 C.3       12 UNK        -0.0967 
     18 CA         28.2366    1.3197   -3.4010 C.3       5 UNK         0.0660 
     19 N          26.7980    1.0567   -3.3040 N.am      5 UNK        -0.4015 
     20 C          25.7929    1.8957   -3.5831 C.2       4 UNK         0.4946 
     21 O          25.9498    3.0386   -4.0203 O.2       4 UNK        -0.5353 
     22 CA         24.3696    1.3477   -3.3458 C.3       4 UNK         0.0277 
     23 CB         23.3246    2.4757   -3.2553 C.3       4 UNK        -0.1981 
     24 N          23.9426    0.3942   -4.3751 N.am      4 UNK        -0.4209 
     25 C          24.4652   -0.8208   -4.5856 C.2       3 UNK         0.4942 
     26 O          25.3807   -1.2987   -3.9076 O.2       3 UNK        -0.5208 
     27 CA         23.8653   -1.6431   -5.7370 C.3       3 UNK         0.0250 
     28 CB         23.8426   -0.8698   -7.0703 C.3       3 UNK        -0.1990 
     29 N          24.6668   -2.8524   -5.8731 N.am      3 UNK        -0.4232 
     30 C          24.3206   -3.9935   -6.4755 C.2       2 UNK         0.4993 
     31 O          23.2478   -4.1678   -7.0548 O.2       2 UNK        -0.5286 
     32 CA         25.3491   -5.1393   -6.4268 C.3       2 UNK         0.0209 
     33 CB         26.0794   -5.2624   -7.7745 C.3       2 UNK        -0.1931 
     34 N          26.3435   -4.9858   -5.3574 N.am      2 UNK        -0.4546 
     35 C          26.0964   -5.1731   -4.0515 C.2       1 UNK         0.5154 
     36 O          24.9979   -5.5253   -3.6193 O.2       1 UNK        -0.5181 
     37 C          28.6082    1.7174   -4.8429 C.2       5 UNK         0.5014 
     38 O          28.4730    0.8849   -5.7396 O.2       5 UNK        -0.5248 
     39 N          29.0291    2.9746   -5.0568 N.am      6 UNK        -0.4434 
     40 CA         29.4362    3.5496   -6.3454 C.3       6 UNK         0.0363 
     41 CB         29.8482    5.0149   -6.1362 C.3       6 UNK        -0.1936 
     42 C          28.3900    3.4412   -7.4709 C.2       6 UNK         0.5081 
     43 O          28.7690    3.4647   -8.6418 O.2       6 UNK        -0.5248 
     44 N          27.1089    3.2575   -7.1164 N.am      7 UNK        -0.4718 
     45 CA         26.0221    2.9207   -8.0425 C.3       7 UNK         0.0273 
     46 CB         24.6959    2.8832   -7.2680 C.3       7 UNK        -0.1935 
     47 C          26.2368    1.5970   -8.8072 C.2       7 UNK         0.5018 
     48 O          25.6573    1.4295   -9.8801 O.2       7 UNK        -0.5186 
     49 N          27.0766    0.6961   -8.2707 N.am      8 UNK        -0.4240 
     50 CA         27.5088   -0.5415   -8.9260 C.3       8 UNK         0.0235 
     51 CB         28.0156   -1.5274   -7.8580 C.3       8 UNK        -0.2000 
     52 C          28.5820   -0.3195  -10.0117 C.2       8 UNK         0.4941 
     53 O          28.9627   -1.2883  -10.6699 O.2       8 UNK        -0.5273 
     54 N          29.0808    0.9182  -10.1694 N.am      9 UNK        -0.4262 
     55 CA         30.0626    1.4086  -11.1502 C.3       9 UNK         0.0264 
     56 CB         29.5684    1.2048  -12.5957 C.3       9 UNK        -0.1955 
     57 C          31.4944    0.8714  -10.9727 C.2       9 UNK         0.5031 
     58 O          32.4433    1.6365  -11.1483 O.2       9 UNK        -0.5390 
     59 N          31.6368   -0.4137  -10.6269 N.am      10 UNK        -0.4204 
     60 CA         32.9121   -1.0690  -10.3239 C.3       10 UNK         0.0237 
     61 CB         32.7030   -2.5914  -10.2815 C.3       10 UNK        -0.1985 
     62 C          33.5391   -0.5732   -9.0086 C.2       10 UNK         0.4970 
     63 O          34.7647   -0.4996   -8.9117 O.2       10 UNK        -0.4914 
     64 N          32.6883   -0.2499   -8.0281 N.am      11 UNK        -0.4285 
     65 CA         33.0669    0.3237   -6.7317 C.3       11 UNK         0.1007 
     66 C          33.5203    1.8013   -6.8671 C.2       11 UNK         0.5703 
     67 N          34.5592    2.2020   -6.1472 N.am      11 UNK        -0.7361 
     68 O          32.9102    2.5950   -7.5801 O.2       11 UNK        -0.4986 
     69 C69        31.9068    0.1994   -5.7141 C.3       12 UNK        -0.0947 
     70 S70        31.4922   -1.5404   -5.3590 S.3       12 UNK        -0.2240 
     71 C71        32.3659   -1.7996   -3.7850 C.3       12 UNK         0.0194 
     72 H72        31.4012   -6.0587   -4.2403 H         1 UNK         0.0906 
     73 H73        30.6071   -6.1690   -5.8132 H         1 UNK         0.0906 
     74 H74        30.7539   -4.6071   -5.0099 H         1 UNK         0.0906 
     75 H75        28.9429   -3.9424   -3.8593 H         1 UNK         0.3140 
     76 H76        27.2479   -5.7995   -2.3971 H         1 UNK         0.1085 
     77 H77        25.9555   -3.3664   -2.2006 H         1 UNK         0.0836 
     78 H78        27.5367   -2.7866   -2.5981 H         1 UNK         0.0836 
     79 H79        29.6093   -4.1475    0.5607 H         1 UNK         0.0731 
     80 H80        29.5601   -4.8641   -1.0270 H         1 UNK         0.0731 
     81 H81        30.9773   -3.7706   -2.5593 H         1 UNK         0.1312 
     82 H82        31.6925    0.4497   -2.3662 H         1 UNK         0.1406 
     83 H83        29.0484   -1.4132    0.4552 H         1 UNK         0.1631 
     84 H84        30.8897    1.7166   -0.4477 H         1 UNK         0.0717 
     85 H85        30.1508    0.8648    0.8803 H         1 UNK         0.0717 
     86 H86        28.2601    3.2758   -2.4062 H         1 UNK         0.0934 
     87 H87        29.8251    2.4972   -2.4480 H         1 UNK         0.0934 
     88 H88        28.7233    0.3577   -3.2350 H         1 UNK         0.0739 
     89 H89        26.5417    0.0964   -3.0984 H         1 UNK         0.3093 
     90 H90        24.3780    0.8278   -2.3851 H         1 UNK         0.0818 
     91 H91        22.3415    2.0875   -2.9884 H         1 UNK         0.0819 
     92 H92        23.6018    3.2029   -2.4908 H         1 UNK         0.0819 
     93 H93        23.2288    3.0164   -4.1979 H         1 UNK         0.0819 
     94 H94        23.1931    0.7021   -4.9769 H         1 UNK         0.3041 
     95 H95        22.8481   -1.9226   -5.4553 H         1 UNK         0.0784 
     96 H96        23.2169    0.0208   -7.0135 H         1 UNK         0.0793 
     97 H97        24.8438   -0.5560   -7.3578 H         1 UNK         0.0793 
     98 H98        23.4448   -1.4817   -7.8799 H         1 UNK         0.0793 
     99 H99        25.5331   -2.8174   -5.3500 H         1 UNK         0.3024 
    100 H100       24.7938   -6.0636   -6.2503 H         1 UNK         0.1171 
    101 H101       25.3706   -5.4189   -8.5890 H         1 UNK         0.0786 
    102 H102       26.7665   -6.1089   -7.7787 H         1 UNK         0.0786 
    103 H103       26.6499   -4.3634   -8.0091 H         1 UNK         0.0786 
    104 H104       27.2781   -4.7199   -5.6309 H         1 UNK         0.2977 
    105 H105       29.0519    3.6051   -4.2690 H         1 UNK         0.3127 
    106 H106       30.3142    2.9949   -6.6807 H         1 UNK         0.0770 
    107 H107       29.0188    5.6186   -5.7657 H         1 UNK         0.0814 
    108 H108       30.1846    5.4624   -7.0728 H         1 UNK         0.0814 
    109 H109       30.6725    5.0995   -5.4278 H         1 UNK         0.0814 
    110 H110       26.8826    3.2474   -6.1284 H         1 UNK         0.2983 
    111 H111       25.9650    3.7173   -8.7873 H         1 UNK         0.0947 
    112 H112       23.8582    2.6701   -7.9335 H         1 UNK         0.0806 
    113 H113       24.4907    3.8376   -6.7826 H         1 UNK         0.0806 
    114 H114       24.7073    2.1128   -6.4983 H         1 UNK         0.0806 
    115 H115       27.5120    0.8995   -7.3724 H         1 UNK         0.3000 
    116 H116       26.6435   -0.9914   -9.4173 H         1 UNK         0.0850 
    117 H117       28.2634   -2.4923   -8.3016 H         1 UNK         0.0810 
    118 H118       28.9157   -1.1599   -7.3638 H         1 UNK         0.0810 
    119 H119       27.2625   -1.7056   -7.0905 H         1 UNK         0.0810 
    120 H120       28.7420    1.6415   -9.5419 H         1 UNK         0.3040 
    121 H121       30.1191    2.4848  -10.9777 H         1 UNK         0.0766 
    122 H122       28.5867    1.6542  -12.7453 H         1 UNK         0.0812 
    123 H123       29.4984    0.1494  -12.8604 H         1 UNK         0.0812 
    124 H124       30.2503    1.6711  -13.3080 H         1 UNK         0.0812 
    125 H125       30.7866   -0.9716  -10.5686 H         1 UNK         0.3205 
    126 H126       33.6110   -0.8404  -11.1314 H         1 UNK         0.0754 
    127 H127       33.6413   -3.1089  -10.0767 H         1 UNK         0.0769 
    128 H128       32.3283   -2.9665  -11.2342 H         1 UNK         0.0769 
    129 H129       31.9936   -2.8810   -9.5049 H         1 UNK         0.0769 
    130 H130       31.6992   -0.3297   -8.2025 H         1 UNK         0.2981 
    131 H131       33.9122   -0.2533   -6.3505 H         1 UNK         0.0541 
    132 H132       34.8556    3.1632   -6.2117 H         1 UNK         0.3459 
    133 H133       35.0617    1.5628   -5.5515 H         1 UNK         0.3459 
    134 H134       31.0174    0.6841   -6.1133 H         1 UNK         0.0612 
    135 H135       32.1406    0.7145   -4.7811 H         1 UNK         0.0612 
    136 H136       33.2007   -1.1039   -3.6888 H         1 UNK         0.0624 
    137 H137       32.8098   -2.7962   -3.7990 H         1 UNK         0.0624 
@<TRIPOS>BOND
     1    1    2 1    
     2    1   72 1    
     3    1   73 1    
     4    1   74 1    
     5    2    3 2    
     6    2    4 am   BACKBONE|DICT|INTERRES
     7    4    5 1    
     8    4   75 1    
     9    5    6 1    
    10    5   35 1    
    11    5   76 1    
    12    6    7 1    
    13    6   77 1    
    14    6   78 1    
    15    7    8 1    
    16    8    9 1    
    17    8   79 1    
    18    8   80 1    
    19    9   10 ar   
    20    9   14 ar   
    21   10   11 ar   
    22   10   81 1    
    23   11   12 ar   
    24   11   71 1    
    25   12   13 ar   
    26   12   82 1    
    27   13   14 ar   
    28   13   15 1    
    29   14   83 1    
    30   15   16 1    
    31   15   84 1    
    32   15   85 1    
    33   16   17 1    
    34   17   18 1    
    35   17   86 1    
    36   17   87 1    
    37   18   19 1    
    38   18   37 1    
    39   18   88 1    
    40   19   20 am   BACKBONE|DICT|INTERRES
    41   19   89 1    
    42   20   21 2    
    43   20   22 1    
    44   22   23 1    
    45   22   24 1    
    46   22   90 1    
    47   23   91 1    
    48   23   92 1    
    49   23   93 1    
    50   24   25 am   BACKBONE|DICT|INTERRES
    51   24   94 1    
    52   25   26 2    
    53   25   27 1    
    54   27   28 1    
    55   27   29 1    
    56   27   95 1    
    57   28   96 1    
    58   28   97 1    
    59   28   98 1    
    60   29   30 am   BACKBONE|DICT|INTERRES
    61   29   99 1    
    62   30   31 2    
    63   30   32 1    
    64   32   33 1    
    65   32   34 1    
    66   32  100 1    
    67   33  101 1    
    68   33  102 1    
    69   33  103 1    
    70   34   35 am   BACKBONE|DICT|INTERRES
    71   34  104 1    
    72   35   36 2    
    73   37   38 2    
    74   37   39 am   BACKBONE|DICT|INTERRES
    75   39   40 1    
    76   39  105 1    
    77   40   41 1    
    78   40   42 1    
    79   40  106 1    
    80   41  107 1    
    81   41  108 1    
    82   41  109 1    
    83   42   43 2    
    84   42   44 am   BACKBONE|DICT|INTERRES
    85   44   45 1    
    86   44  110 1    
    87   45   46 1    
    88   45   47 1    
    89   45  111 1    
    90   46  112 1    
    91   46  113 1    
    92   46  114 1    
    93   47   48 2    
    94   47   49 am   BACKBONE|DICT|INTERRES
    95   49   50 1    
    96   49  115 1    
    97   50   51 1    
    98   50   52 1    
    99   50  116 1    
   100   51  117 1    
   101   51  118 1    
   102   51  119 1    
   103   52   53 2    
   104   52   54 am   BACKBONE|DICT|INTERRES
   105   54   55 1    
   106   54  120 1    
   107   55   56 1    
   108   55   57 1    
   109   55  121 1    
   110   56  122 1    
   111   56  123 1    
   112   56  124 1    
   113   57   58 2    
   114   57   59 am   BACKBONE|DICT|INTERRES
   115   59   60 1    
   116   59  125 1    
   117   60   61 1    
   118   60   62 1    
   119   60  126 1    
   120   61  127 1    
   121   61  128 1    
   122   61  129 1    
   123   62   63 2    
   124   62   64 am   BACKBONE|DICT|INTERRES
   125   64   65 1    
   126   64  130 1    
   127   65   66 1    
   128   65   69 1    
   129   65  131 1    
   130   66   67 am   BACKBONE|DICT|INTERRES
   131   66   68 2    
   132   67  132 1    
   133   67  133 1    
   134   69   70 1    
   135   69  134 1    
   136   69  135 1    
   137   70   71 1    
   138   71  136 1    
   139   71  137 1    
@<TRIPOS>SUBSTRUCTURE
     1 UNK         1 GROUP             0       ****    0 ROOT    
