@<TRIPOS>MOLECULE
3R137
137   139    1
SMALL
USER_CHARGES


@<TRIPOS>ATOM
      1 CA         29.2334    1.4861   -0.6813 C.3       0 UNK        -0.2020 
      2 C          28.8383    0.1247   -1.2323 C.2       0 UNK         0.4855 
      3 O          28.4289    0.0310   -2.3874 O.2       0 UNK        -0.5197 
      4 N          28.9567   -0.9307   -0.4169 N.am      1 UNK        -0.4892 
      5 CA         28.6261   -2.3162   -0.7683 C.3       1 UNK         0.0835 
      6 C6         29.3318   -3.3295    0.1676 C.3       12 UNK        -0.0855 
      7 S7         31.1520   -3.2296    0.0862 S.3       12 UNK        -0.2931 
      8 C8         31.5757   -4.7732   -0.7815 C.3       12 UNK         0.0378 
      9 C9         31.6095   -4.5898   -2.2921 C.ar      12 UNK        -0.0802 
     10 C10        32.8161   -4.2711   -2.9212 C.ar      12 UNK        -0.0944 
     11 C11        32.8895   -4.1696   -4.3127 C.ar      12 UNK        -0.0787 
     12 C12        31.7356   -4.3703   -5.0757 C.ar      12 UNK        -0.0862 
     13 C13        30.5118   -4.6530   -4.4601 C.ar      12 UNK        -0.0733 
     14 C14        30.4591   -4.7772   -3.0660 C.ar      12 UNK        -0.0832 
     15 C15        29.2676   -4.8795   -5.3134 C.3       12 UNK         0.0240 
     16 S16        27.8389   -3.8725   -4.7976 S.3       12 UNK        -0.2522 
     17 C17        28.3252   -2.1737   -5.2651 C.3       12 UNK        -0.0967 
     18 CA         27.5936   -1.6232   -6.5225 C.3       5 UNK         0.0660 
     19 N          26.1556   -1.9025   -6.5243 N.am      5 UNK        -0.4015 
     20 C          25.3840   -1.9469   -7.6188 C.2       4 UNK         0.4946 
     21 O          25.8104   -1.8031   -8.7647 O.2       4 UNK        -0.5353 
     22 CA         23.8778   -2.1910   -7.4080 C.3       4 UNK         0.0277 
     23 CB         23.5639   -3.6939   -7.4871 C.3       4 UNK        -0.1981 
     24 N          23.3707   -1.6572   -6.1409 N.am      4 UNK        -0.4209 
     25 C          23.2782   -0.3515   -5.8505 C.2       3 UNK         0.4942 
     26 O          23.5661    0.5460   -6.6393 O.2       3 UNK        -0.5208 
     27 CA         22.8439    0.0156   -4.4195 C.3       3 UNK         0.0250 
     28 CB         21.3116    0.0863   -4.3224 C.3       3 UNK        -0.1990 
     29 N          23.3628   -0.8894   -3.3850 N.am      3 UNK        -0.4232 
     30 C          24.6605   -1.1606   -3.1905 C.2       2 UNK         0.4993 
     31 O          25.5665   -0.7002   -3.8905 O.2       2 UNK        -0.5286 
     32 CA         25.0022   -2.1494   -2.0732 C.3       2 UNK         0.0209 
     33 CB         24.6001   -3.5846   -2.4682 C.3       2 UNK        -0.1931 
     34 N          26.4403   -2.0753   -1.8391 N.am      2 UNK        -0.4546 
     35 C          27.0964   -2.5220   -0.7677 C.2       1 UNK         0.5154 
     36 O          26.5410   -3.0523    0.1973 O.2       1 UNK        -0.5181 
     37 C          27.8094   -0.1044   -6.6662 C.2       5 UNK         0.5014 
     38 O          28.5493    0.3332   -7.5471 O.2       5 UNK        -0.5248 
     39 N          27.1097    0.6697   -5.8225 N.am      6 UNK        -0.4434 
     40 CA         27.1583    2.1318   -5.7521 C.3       6 UNK         0.0363 
     41 CB         26.3681    2.5939   -4.5178 C.3       6 UNK        -0.1936 
     42 C          26.6554    2.8521   -7.0170 C.2       6 UNK         0.5081 
     43 O          27.0339    4.0024   -7.2370 O.2       6 UNK        -0.5248 
     44 N          25.8239    2.1807   -7.8265 N.am      7 UNK        -0.4718 
     45 CA         25.3821    2.6471   -9.1448 C.3       7 UNK         0.0273 
     46 CB         24.1974    1.7879   -9.6163 C.3       7 UNK        -0.1935 
     47 C          26.4992    2.6410  -10.2062 C.2       7 UNK         0.5018 
     48 O          26.3778    3.3559  -11.2025 O.2       7 UNK        -0.5186 
     49 N          27.5503    1.8410   -9.9866 N.am      8 UNK        -0.4240 
     50 CA         28.7577    1.7853  -10.8077 C.3       8 UNK         0.0235 
     51 CB         29.1433    0.3067  -10.9977 C.3       8 UNK        -0.2000 
     52 C          29.8725    2.6158  -10.1435 C.2       8 UNK         0.4941 
     53 O          29.5970    3.4411   -9.2684 O.2       8 UNK        -0.5273 
     54 N          31.1274    2.4031  -10.5599 N.am      9 UNK        -0.4262 
     55 CA         32.3184    3.0737  -10.0253 C.3       9 UNK         0.0264 
     56 CB         33.4621    2.9447  -11.0491 C.3       9 UNK        -0.1955 
     57 C          32.7056    2.5309   -8.6340 C.2       9 UNK         0.5031 
     58 O          33.7706    1.9289   -8.4829 O.2       9 UNK        -0.5390 
     59 N          31.8033    2.7039   -7.6570 N.am      10 UNK        -0.4204 
     60 CA         31.8140    2.2167   -6.2670 C.3       10 UNK         0.0237 
     61 CB         33.0278    2.7505   -5.4816 C.3       10 UNK        -0.1985 
     62 C          31.6894    0.6868   -6.1322 C.2       10 UNK         0.4970 
     63 O          30.9625    0.2213   -5.2557 O.2       10 UNK        -0.4914 
     64 N          32.3759   -0.0528   -7.0044 N.am      11 UNK        -0.4285 
     65 CA         32.2384   -1.4917   -7.2227 C.3       11 UNK         0.1007 
     66 C          31.5630   -1.7277   -8.5959 C.2       11 UNK         0.5703 
     67 N          30.6457   -2.6811   -8.6871 N.am      11 UNK        -0.7361 
     68 O          31.8988   -1.0871   -9.5908 O.2       11 UNK        -0.4986 
     69 C69        33.6143   -2.2017   -7.1743 C.3       12 UNK        -0.0947 
     70 S70        34.3779   -2.1521   -5.5179 S.3       12 UNK        -0.2240 
     71 C71        34.2270   -3.8863   -4.9835 C.3       12 UNK         0.0194 
     72 H72        30.0321    1.9152   -1.2858 H         1 UNK         0.0906 
     73 H73        28.3809    2.1640   -0.7129 H         1 UNK         0.0906 
     74 H74        29.5823    1.4249    0.3493 H         1 UNK         0.0906 
     75 H75        29.2953   -0.7948    0.5249 H         1 UNK         0.3140 
     76 H76        28.9785   -2.5062   -1.7854 H         1 UNK         0.1085 
     77 H77        29.0367   -3.1601    1.2051 H         1 UNK         0.0836 
     78 H78        29.0129   -4.3467   -0.0662 H         1 UNK         0.0836 
     79 H79        32.5562   -5.1014   -0.4324 H         1 UNK         0.0731 
     80 H80        30.8870   -5.5736   -0.5076 H         1 UNK         0.0731 
     81 H81        33.7072   -4.1262   -2.3254 H         1 UNK         0.1312 
     82 H82        31.7963   -4.3168   -6.1528 H         1 UNK         0.1406 
     83 H83        29.5230   -5.0292   -2.5868 H         1 UNK         0.1631 
     84 H84        28.9901   -5.9320   -5.2444 H         1 UNK         0.0717 
     85 H85        29.4695   -4.6864   -6.3676 H         1 UNK         0.0717 
     86 H86        28.1210   -1.5460   -4.3980 H         1 UNK         0.0934 
     87 H87        29.4059   -2.1253   -5.4051 H         1 UNK         0.0934 
     88 H88        28.0329   -2.1063   -7.3977 H         1 UNK         0.0739 
     89 H89        25.7230   -1.9679   -5.6126 H         1 UNK         0.3093 
     90 H90        23.3486   -1.6872   -8.2200 H         1 UNK         0.0818 
     91 H91        22.4918   -3.8803   -7.4219 H         1 UNK         0.0819 
     92 H92        23.9065   -4.1136   -8.4341 H         1 UNK         0.0819 
     93 H93        24.0530   -4.2525   -6.6879 H         1 UNK         0.0819 
     94 H94        23.1053   -2.3262   -5.4331 H         1 UNK         0.3041 
     95 H95        23.2428    1.0095   -4.2075 H         1 UNK         0.0784 
     96 H96        20.9049    0.7683   -5.0708 H         1 UNK         0.0793 
     97 H97        20.8496   -0.8884   -4.4844 H         1 UNK         0.0793 
     98 H98        20.9917    0.4527   -3.3468 H         1 UNK         0.0793 
     99 H99        22.6791   -1.3160   -2.7758 H         1 UNK         0.3024 
    100 H100       24.4765   -1.8463   -1.1650 H         1 UNK         0.1171 
    101 H101       23.5261   -3.6634   -2.6400 H         1 UNK         0.0786 
    102 H102       24.8490   -4.2996   -1.6841 H         1 UNK         0.0786 
    103 H103       25.1021   -3.9063   -3.3814 H         1 UNK         0.0786 
    104 H104       26.9455   -1.5262   -2.5306 H         1 UNK         0.2977 
    105 H105       26.5300    0.2094   -5.1207 H         1 UNK         0.3127 
    106 H106       28.2045    2.4127   -5.6152 H         1 UNK         0.0770 
    107 H107       25.3145    2.3239   -4.5943 H         1 UNK         0.0814 
    108 H108       26.4224    3.6769   -4.4002 H         1 UNK         0.0814 
    109 H109       26.7631    2.1467   -3.6049 H         1 UNK         0.0814 
    110 H110       25.4731    1.2816   -7.5191 H         1 UNK         0.2983 
    111 H111       25.0388    3.6789   -9.0432 H         1 UNK         0.0947 
    112 H112       23.8627    2.0900  -10.6097 H         1 UNK         0.0806 
    113 H113       23.3436    1.8900   -8.9466 H         1 UNK         0.0806 
    114 H114       24.4614    0.7306   -9.6664 H         1 UNK         0.0806 
    115 H115       27.6075    1.3505   -9.0998 H         1 UNK         0.3000 
    116 H116       28.5684    2.2209  -11.7908 H         1 UNK         0.0850 
    117 H117       29.9954    0.1882  -11.6673 H         1 UNK         0.0810 
    118 H118       28.3193   -0.2606  -11.4310 H         1 UNK         0.0810 
    119 H119       29.3995   -0.1630  -10.0484 H         1 UNK         0.0810 
    120 H120       31.2916    1.6795  -11.2451 H         1 UNK         0.3040 
    121 H121       32.0991    4.1372   -9.9079 H         1 UNK         0.0766 
    122 H122       34.3607    3.4528  -10.6965 H         1 UNK         0.0812 
    123 H123       33.1924    3.3940  -12.0050 H         1 UNK         0.0812 
    124 H124       33.7269    1.9020  -11.2301 H         1 UNK         0.0812 
    125 H125       30.9276    3.1329   -7.9540 H         1 UNK         0.3205 
    126 H126       30.9177    2.6381   -5.8088 H         1 UNK         0.0754 
    127 H127       32.9615    2.4691   -4.4298 H         1 UNK         0.0769 
    128 H128       33.0806    3.8384   -5.5242 H         1 UNK         0.0769 
    129 H129       33.9689    2.3528   -5.8624 H         1 UNK         0.0769 
    130 H130       32.9461    0.4406   -7.6862 H         1 UNK         0.2981 
    131 H131       31.5976   -1.9178   -6.4503 H         1 UNK         0.0541 
    132 H132       30.2203   -2.8548   -9.5839 H         1 UNK         0.3459 
    133 H133       30.3778   -3.2341   -7.8920 H         1 UNK         0.3459 
    134 H134       34.3075   -1.7345   -7.8765 H         1 UNK         0.0612 
    135 H135       33.5230   -3.2399   -7.4969 H         1 UNK         0.0612 
    136 H136       35.0425   -4.0972   -4.2900 H         1 UNK         0.0624 
    137 H137       34.3766   -4.5613   -5.8271 H         1 UNK         0.0624 
@<TRIPOS>BOND
     1    1    2 1    
     2    1   72 1    
     3    1   73 1    
     4    1   74 1    
     5    2    3 2    
     6    2    4 am   BACKBONE|DICT|INTERRES
     7    4    5 1    
     8    4   75 1    
     9    5    6 1    
    10    5   35 1    
    11    5   76 1    
    12    6    7 1    
    13    6   77 1    
    14    6   78 1    
    15    7    8 1    
    16    8    9 1    
    17    8   79 1    
    18    8   80 1    
    19    9   10 ar   
    20    9   14 ar   
    21   10   11 ar   
    22   10   81 1    
    23   11   12 ar   
    24   11   71 1    
    25   12   13 ar   
    26   12   82 1    
    27   13   14 ar   
    28   13   15 1    
    29   14   83 1    
    30   15   16 1    
    31   15   84 1    
    32   15   85 1    
    33   16   17 1    
    34   17   18 1    
    35   17   86 1    
    36   17   87 1    
    37   18   19 1    
    38   18   37 1    
    39   18   88 1    
    40   19   20 am   BACKBONE|DICT|INTERRES
    41   19   89 1    
    42   20   21 2    
    43   20   22 1    
    44   22   23 1    
    45   22   24 1    
    46   22   90 1    
    47   23   91 1    
    48   23   92 1    
    49   23   93 1    
    50   24   25 am   BACKBONE|DICT|INTERRES
    51   24   94 1    
    52   25   26 2    
    53   25   27 1    
    54   27   28 1    
    55   27   29 1    
    56   27   95 1    
    57   28   96 1    
    58   28   97 1    
    59   28   98 1    
    60   29   30 am   BACKBONE|DICT|INTERRES
    61   29   99 1    
    62   30   31 2    
    63   30   32 1    
    64   32   33 1    
    65   32   34 1    
    66   32  100 1    
    67   33  101 1    
    68   33  102 1    
    69   33  103 1    
    70   34   35 am   BACKBONE|DICT|INTERRES
    71   34  104 1    
    72   35   36 2    
    73   37   38 2    
    74   37   39 am   BACKBONE|DICT|INTERRES
    75   39   40 1    
    76   39  105 1    
    77   40   41 1    
    78   40   42 1    
    79   40  106 1    
    80   41  107 1    
    81   41  108 1    
    82   41  109 1    
    83   42   43 2    
    84   42   44 am   BACKBONE|DICT|INTERRES
    85   44   45 1    
    86   44  110 1    
    87   45   46 1    
    88   45   47 1    
    89   45  111 1    
    90   46  112 1    
    91   46  113 1    
    92   46  114 1    
    93   47   48 2    
    94   47   49 am   BACKBONE|DICT|INTERRES
    95   49   50 1    
    96   49  115 1    
    97   50   51 1    
    98   50   52 1    
    99   50  116 1    
   100   51  117 1    
   101   51  118 1    
   102   51  119 1    
   103   52   53 2    
   104   52   54 am   BACKBONE|DICT|INTERRES
   105   54   55 1    
   106   54  120 1    
   107   55   56 1    
   108   55   57 1    
   109   55  121 1    
   110   56  122 1    
   111   56  123 1    
   112   56  124 1    
   113   57   58 2    
   114   57   59 am   BACKBONE|DICT|INTERRES
   115   59   60 1    
   116   59  125 1    
   117   60   61 1    
   118   60   62 1    
   119   60  126 1    
   120   61  127 1    
   121   61  128 1    
   122   61  129 1    
   123   62   63 2    
   124   62   64 am   BACKBONE|DICT|INTERRES
   125   64   65 1    
   126   64  130 1    
   127   65   66 1    
   128   65   69 1    
   129   65  131 1    
   130   66   67 am   BACKBONE|DICT|INTERRES
   131   66   68 2    
   132   67  132 1    
   133   67  133 1    
   134   69   70 1    
   135   69  134 1    
   136   69  135 1    
   137   70   71 1    
   138   71  136 1    
   139   71  137 1    
@<TRIPOS>SUBSTRUCTURE
     1 UNK         1 GROUP             0       ****    0 ROOT    
