@<TRIPOS>MOLECULE
3R137
137   139    1
SMALL
USER_CHARGES


@<TRIPOS>ATOM
      1 CA         25.4074   -7.2690    2.4169 C.3       0 UNK        -0.2020 
      2 C          26.0266   -6.2648    1.4561 C.2       0 UNK         0.4855 
      3 O          27.1598   -5.8323    1.6684 O.2       0 UNK        -0.5197 
      4 N          25.2930   -5.8885    0.4042 N.am      1 UNK        -0.4892 
      5 CA         25.6895   -4.9003   -0.5972 C.3       1 UNK         0.0835 
      6 C6         26.7686   -5.4307   -1.5867 C.3       12 UNK        -0.0855 
      7 S7         27.7027   -4.0984   -2.4245 S.3       12 UNK        -0.2931 
      8 C8         29.0779   -3.8506   -1.2638 C.3       12 UNK         0.0378 
      9 C9         30.1286   -2.9317   -1.8648 C.ar      12 UNK        -0.0802 
     10 C10        31.1030   -3.4631   -2.7131 C.ar      12 UNK        -0.0944 
     11 C11        32.0853   -2.6396   -3.2657 C.ar      12 UNK        -0.0787 
     12 C12        32.1028   -1.2814   -2.9420 C.ar      12 UNK        -0.0862 
     13 C13        31.1201   -0.7235   -2.1133 C.ar      12 UNK        -0.0733 
     14 C14        30.1353   -1.5620   -1.5764 C.ar      12 UNK        -0.0832 
     15 C15        31.1261    0.7600   -1.7335 C.3       12 UNK         0.0240 
     16 S16        32.0481    1.8484   -2.8813 S.3       12 UNK        -0.2522 
     17 C17        30.7408    2.7001   -3.8228 C.3       12 UNK        -0.0967 
     18 CA         30.4496    2.0442   -5.1965 C.3       5 UNK         0.0660 
     19 N          29.6977    0.7944   -5.0460 N.am      5 UNK        -0.4015 
     20 C          29.3472   -0.0213   -6.0491 C.2       4 UNK         0.4946 
     21 O          29.7828    0.0929   -7.1944 O.2       4 UNK        -0.5353 
     22 CA         28.3050   -1.1166   -5.7471 C.3       4 UNK         0.0277 
     23 CB         28.9753   -2.4951   -5.6772 C.3       4 UNK        -0.1981 
     24 N          27.4947   -0.9102   -4.5345 N.am      4 UNK        -0.4209 
     25 C          26.7119    0.1515   -4.2832 C.2       3 UNK         0.4942 
     26 O          26.6344    1.1283   -5.0293 O.2       3 UNK        -0.5208 
     27 CA         25.9116    0.1274   -2.9681 C.3       3 UNK         0.0250 
     28 CB         25.0035    1.3647   -2.7971 C.3       3 UNK        -0.1990 
     29 N          25.1474   -1.1135   -2.7962 N.am      3 UNK        -0.4232 
     30 C          24.1722   -1.5993   -3.5848 C.2       2 UNK         0.4993 
     31 O          23.7359   -1.0186   -4.5782 O.2       2 UNK        -0.5286 
     32 CA         23.6029   -2.9800   -3.2045 C.3       2 UNK         0.0209 
     33 CB         23.1748   -3.7966   -4.4387 C.3       2 UNK        -0.1931 
     34 N          24.5972   -3.7398   -2.4476 N.am      2 UNK        -0.4546 
     35 C          24.4180   -4.3448   -1.2715 C.2       1 UNK         0.5154 
     36 O          23.3227   -4.4504   -0.7123 O.2       1 UNK        -0.5181 
     37 C          29.7310    3.0604   -6.1164 C.2       5 UNK         0.5014 
     38 O          30.4103    3.8226   -6.8056 O.2       5 UNK        -0.5248 
     39 N          28.3902    3.0684   -6.1005 N.am      6 UNK        -0.4434 
     40 CA         27.5465    3.9749   -6.8766 C.3       6 UNK         0.0363 
     41 CB         26.5695    4.6919   -5.9298 C.3       6 UNK        -0.1936 
     42 C          26.7762    3.2249   -7.9705 C.2       6 UNK         0.5081 
     43 O          26.7334    3.7066   -9.1027 O.2       6 UNK        -0.5248 
     44 N          26.1808    2.0714   -7.6296 N.am      7 UNK        -0.4718 
     45 CA         25.3451    1.2481   -8.5103 C.3       7 UNK         0.0273 
     46 CB         24.7540    0.0748   -7.7131 C.3       7 UNK        -0.1935 
     47 C          26.1235    0.7596   -9.7417 C.2       7 UNK         0.5018 
     48 O          27.0062   -0.0917   -9.6110 O.2       7 UNK        -0.5186 
     49 N          25.8343    1.3862  -10.8936 N.am      8 UNK        -0.4240 
     50 CA         26.5202    1.2544  -12.1887 C.3       8 UNK         0.0235 
     51 CB         26.2825   -0.1518  -12.7797 C.3       8 UNK        -0.2000 
     52 C          28.0231    1.6136  -12.1508 C.2       8 UNK         0.4941 
     53 O          28.7409    1.2828  -13.0959 O.2       8 UNK        -0.5273 
     54 N          28.4756    2.2504  -11.0567 N.am      9 UNK        -0.4262 
     55 CA         29.8699    2.4771  -10.6600 C.3       9 UNK         0.0264 
     56 CB         30.4902    3.6053  -11.5096 C.3       9 UNK        -0.1955 
     57 C          30.7208    1.1870  -10.6611 C.2       9 UNK         0.5031 
     58 O          31.8997    1.2415  -11.0172 O.2       9 UNK        -0.5390 
     59 N          30.1134    0.0491  -10.2853 N.am      10 UNK        -0.4204 
     60 CA         30.6941   -1.2968  -10.3732 C.3       10 UNK         0.0237 
     61 CB         29.6589   -2.3300   -9.9009 C.3       10 UNK        -0.1985 
     62 C          32.0283   -1.4708   -9.6254 C.2       10 UNK         0.4970 
     63 O          32.9374   -2.1076  -10.1600 O.2       10 UNK        -0.4914 
     64 N          32.1259   -0.8767   -8.4328 N.am      11 UNK        -0.4285 
     65 CA         33.3531   -0.7779   -7.6280 C.3       11 UNK         0.1007 
     66 C          34.0558    0.6068   -7.7599 C.2       11 UNK         0.5703 
     67 N          33.7037    1.4551   -8.7187 N.am      11 UNK        -0.7361 
     68 O          34.9610    0.9181   -6.9895 O.2       11 UNK        -0.4986 
     69 C69        33.0875   -1.1635   -6.1497 C.3       12 UNK        -0.0947 
     70 S70        32.6623   -2.9270   -5.9561 S.3       12 UNK        -0.2240 
     71 C71        33.1231   -3.2153   -4.2175 C.3       12 UNK         0.0194 
     72 H72        24.4068   -7.5684    2.1054 H         1 UNK         0.0906 
     73 H73        26.0263   -8.1640    2.4740 H         1 UNK         0.0906 
     74 H74        25.3373   -6.8388    3.4156 H         1 UNK         0.0906 
     75 H75        24.3371   -6.2094    0.3040 H         1 UNK         0.3140 
     76 H76        26.1161   -4.0570   -0.0491 H         1 UNK         0.1085 
     77 H77        26.3171   -6.0789   -2.3404 H         1 UNK         0.0836 
     78 H78        27.4867   -6.0635   -1.0634 H         1 UNK         0.0836 
     79 H79        29.5314   -4.8123   -1.0182 H         1 UNK         0.0731 
     80 H80        28.6971   -3.4411   -0.3268 H         1 UNK         0.0731 
     81 H81        31.0866   -4.5174   -2.9539 H         1 UNK         0.1312 
     82 H82        32.8886   -0.6636   -3.3502 H         1 UNK         0.1406 
     83 H83        29.3815   -1.1521   -0.9176 H         1 UNK         0.1631 
     84 H84        31.5867    0.8486   -0.7489 H         1 UNK         0.0717 
     85 H85        30.1038    1.1232   -1.6221 H         1 UNK         0.0717 
     86 H86        29.8324    2.7890   -3.2242 H         1 UNK         0.0934 
     87 H87        31.0987    3.7234   -3.9583 H         1 UNK         0.0934 
     88 H88        31.3987    1.8013   -5.6795 H         1 UNK         0.0739 
     89 H89        29.3323    0.5976   -4.1277 H         1 UNK         0.3093 
     90 H90        27.6213   -1.1238   -6.5967 H         1 UNK         0.0818 
     91 H91        28.2396   -3.2956   -5.5994 H         1 UNK         0.0819 
     92 H92        29.5741   -2.6904   -6.5672 H         1 UNK         0.0819 
     93 H93        29.6421   -2.5663   -4.8206 H         1 UNK         0.0819 
     94 H94        27.5085   -1.6647   -3.8626 H         1 UNK         0.3041 
     95 H95        26.6485    0.1508   -2.1637 H         1 UNK         0.0784 
     96 H96        25.5897    2.2845   -2.8128 H         1 UNK         0.0793 
     97 H97        24.2645    1.4400   -3.5956 H         1 UNK         0.0793 
     98 H98        24.4696    1.3376   -1.8474 H         1 UNK         0.0793 
     99 H99        25.4049   -1.6702   -1.9940 H         1 UNK         0.3024 
    100 H100       22.7216   -2.7932   -2.5863 H         1 UNK         0.1171 
    101 H101       22.7791   -4.7706   -4.1504 H         1 UNK         0.0786 
    102 H102       22.3912   -3.2838   -4.9981 H         1 UNK         0.0786 
    103 H103       24.0100   -3.9619   -5.1204 H         1 UNK         0.0786 
    104 H104       25.5372   -3.7469   -2.8289 H         1 UNK         0.2977 
    105 H105       27.8962    2.3647   -5.5559 H         1 UNK         0.3127 
    106 H106       28.1548    4.7369   -7.3688 H         1 UNK         0.0770 
    107 H107       25.9333    3.9871   -5.3924 H         1 UNK         0.0814 
    108 H108       25.9157    5.3683   -6.4821 H         1 UNK         0.0814 
    109 H109       27.1037    5.2892   -5.1910 H         1 UNK         0.0814 
    110 H110       26.2893    1.7321   -6.6753 H         1 UNK         0.2983 
    111 H111       24.5121    1.8700   -8.8447 H         1 UNK         0.0947 
    112 H112       25.5278   -0.5794   -7.3141 H         1 UNK         0.0806 
    113 H113       24.1038   -0.5362   -8.3401 H         1 UNK         0.0806 
    114 H114       24.1558    0.4293   -6.8736 H         1 UNK         0.0806 
    115 H115       25.1287    2.1099  -10.8618 H         1 UNK         0.3000 
    116 H116       26.0547    1.9807  -12.8567 H         1 UNK         0.0850 
    117 H117       26.6602   -0.2187  -13.8007 H         1 UNK         0.0810 
    118 H118       25.2205   -0.3945  -12.8136 H         1 UNK         0.0810 
    119 H119       26.7853   -0.9248  -12.1973 H         1 UNK         0.0810 
    120 H120       27.7835    2.5400  -10.3719 H         1 UNK         0.3040 
    121 H121       29.8411    2.8176   -9.6234 H         1 UNK         0.0766 
    122 H122       31.4850    3.8674  -11.1472 H         1 UNK         0.0812 
    123 H123       29.8840    4.5102  -11.4699 H         1 UNK         0.0812 
    124 H124       30.5899    3.3126  -12.5554 H         1 UNK         0.0812 
    125 H125       29.1496    0.0982   -9.9700 H         1 UNK         0.3205 
    126 H126       30.8951   -1.4832  -11.4300 H         1 UNK         0.0754 
    127 H127       30.0670   -3.3412   -9.9314 H         1 UNK         0.0769 
    128 H128       28.7717   -2.3174  -10.5345 H         1 UNK         0.0769 
    129 H129       29.3365   -2.1346   -8.8781 H         1 UNK         0.0769 
    130 H130       31.3053   -0.4015   -8.0593 H         1 UNK         0.2981 
    131 H131       34.0887   -1.4870   -8.0110 H         1 UNK         0.0541 
    132 H132       34.1817    2.3391   -8.7833 H         1 UNK         0.3459 
    133 H133       33.0148    1.2068   -9.4213 H         1 UNK         0.3459 
    134 H134       33.9711   -0.9704   -5.5397 H         1 UNK         0.0612 
    135 H135       32.2850   -0.5550   -5.7328 H         1 UNK         0.0612 
    136 H136       33.2209   -4.2902   -4.0589 H         1 UNK         0.0624 
    137 H137       34.1060   -2.7885   -4.0130 H         1 UNK         0.0624 
@<TRIPOS>BOND
     1    1    2 1    
     2    1   72 1    
     3    1   73 1    
     4    1   74 1    
     5    2    3 2    
     6    2    4 am   BACKBONE|DICT|INTERRES
     7    4    5 1    
     8    4   75 1    
     9    5    6 1    
    10    5   35 1    
    11    5   76 1    
    12    6    7 1    
    13    6   77 1    
    14    6   78 1    
    15    7    8 1    
    16    8    9 1    
    17    8   79 1    
    18    8   80 1    
    19    9   10 ar   
    20    9   14 ar   
    21   10   11 ar   
    22   10   81 1    
    23   11   12 ar   
    24   11   71 1    
    25   12   13 ar   
    26   12   82 1    
    27   13   14 ar   
    28   13   15 1    
    29   14   83 1    
    30   15   16 1    
    31   15   84 1    
    32   15   85 1    
    33   16   17 1    
    34   17   18 1    
    35   17   86 1    
    36   17   87 1    
    37   18   19 1    
    38   18   37 1    
    39   18   88 1    
    40   19   20 am   BACKBONE|DICT|INTERRES
    41   19   89 1    
    42   20   21 2    
    43   20   22 1    
    44   22   23 1    
    45   22   24 1    
    46   22   90 1    
    47   23   91 1    
    48   23   92 1    
    49   23   93 1    
    50   24   25 am   BACKBONE|DICT|INTERRES
    51   24   94 1    
    52   25   26 2    
    53   25   27 1    
    54   27   28 1    
    55   27   29 1    
    56   27   95 1    
    57   28   96 1    
    58   28   97 1    
    59   28   98 1    
    60   29   30 am   BACKBONE|DICT|INTERRES
    61   29   99 1    
    62   30   31 2    
    63   30   32 1    
    64   32   33 1    
    65   32   34 1    
    66   32  100 1    
    67   33  101 1    
    68   33  102 1    
    69   33  103 1    
    70   34   35 am   BACKBONE|DICT|INTERRES
    71   34  104 1    
    72   35   36 2    
    73   37   38 2    
    74   37   39 am   BACKBONE|DICT|INTERRES
    75   39   40 1    
    76   39  105 1    
    77   40   41 1    
    78   40   42 1    
    79   40  106 1    
    80   41  107 1    
    81   41  108 1    
    82   41  109 1    
    83   42   43 2    
    84   42   44 am   BACKBONE|DICT|INTERRES
    85   44   45 1    
    86   44  110 1    
    87   45   46 1    
    88   45   47 1    
    89   45  111 1    
    90   46  112 1    
    91   46  113 1    
    92   46  114 1    
    93   47   48 2    
    94   47   49 am   BACKBONE|DICT|INTERRES
    95   49   50 1    
    96   49  115 1    
    97   50   51 1    
    98   50   52 1    
    99   50  116 1    
   100   51  117 1    
   101   51  118 1    
   102   51  119 1    
   103   52   53 2    
   104   52   54 am   BACKBONE|DICT|INTERRES
   105   54   55 1    
   106   54  120 1    
   107   55   56 1    
   108   55   57 1    
   109   55  121 1    
   110   56  122 1    
   111   56  123 1    
   112   56  124 1    
   113   57   58 2    
   114   57   59 am   BACKBONE|DICT|INTERRES
   115   59   60 1    
   116   59  125 1    
   117   60   61 1    
   118   60   62 1    
   119   60  126 1    
   120   61  127 1    
   121   61  128 1    
   122   61  129 1    
   123   62   63 2    
   124   62   64 am   BACKBONE|DICT|INTERRES
   125   64   65 1    
   126   64  130 1    
   127   65   66 1    
   128   65   69 1    
   129   65  131 1    
   130   66   67 am   BACKBONE|DICT|INTERRES
   131   66   68 2    
   132   67  132 1    
   133   67  133 1    
   134   69   70 1    
   135   69  134 1    
   136   69  135 1    
   137   70   71 1    
   138   71  136 1    
   139   71  137 1    
@<TRIPOS>SUBSTRUCTURE
     1 UNK         1 GROUP             0       ****    0 ROOT    
