@<TRIPOS>MOLECULE
3R137
137   139    1
SMALL
USER_CHARGES


@<TRIPOS>ATOM
      1 CA         27.1659   -3.6799    4.1936 C.3       0 UNK        -0.2020 
      2 C          27.2208   -3.1488    2.7689 C.2       0 UNK         0.4855 
      3 O          26.8162   -2.0117    2.5231 O.2       0 UNK        -0.5197 
      4 N          27.7274   -3.9577    1.8306 N.am      1 UNK        -0.4892 
      5 CA         27.8155   -3.6327    0.4026 C.3       1 UNK         0.0835 
      6 C6         28.7837   -4.5858   -0.3472 C.3       12 UNK        -0.0855 
      7 S7         30.4601   -4.6919    0.3831 S.3       12 UNK        -0.2931 
      8 C8         31.1861   -3.0506    0.0529 C.3       12 UNK         0.0378 
      9 C9         31.3110   -2.7600   -1.4353 C.ar      12 UNK        -0.0802 
     10 C10        32.4395   -3.1678   -2.1549 C.ar      12 UNK        -0.0944 
     11 C11        32.5464   -2.9152   -3.5287 C.ar      12 UNK        -0.0787 
     12 C12        31.4877   -2.2662   -4.1800 C.ar      12 UNK        -0.0862 
     13 C13        30.3661   -1.8409   -3.4658 C.ar      12 UNK        -0.0733 
     14 C14        30.2906   -2.0738   -2.0939 C.ar      12 UNK        -0.0832 
     15 C15        29.2235   -1.1376   -4.1690 C.3       12 UNK         0.0240 
     16 S16        27.9991   -2.3419   -4.7678 S.3       12 UNK        -0.2522 
     17 C17        28.4407   -2.4921   -6.5325 C.3       12 UNK        -0.0967 
     18 CA         27.6237   -1.5507   -7.4555 C.3       5 UNK         0.0660 
     19 N          26.1836   -1.6325   -7.1953 N.am      5 UNK        -0.4015 
     20 C          25.2303   -1.0929   -7.9641 C.2       4 UNK         0.4946 
     21 O          25.4538   -0.4908   -9.0137 O.2       4 UNK        -0.5353 
     22 CA         23.7881   -1.2055   -7.4467 C.3       4 UNK         0.0277 
     23 CB         23.2037   -2.5907   -7.7673 C.3       4 UNK        -0.1981 
     24 N          23.6503   -0.9300   -6.0110 N.am      4 UNK        -0.4209 
     25 C          23.9488    0.2400   -5.4248 C.2       3 UNK         0.4942 
     26 O          24.4673    1.1850   -6.0182 O.2       3 UNK        -0.5208 
     27 CA         23.6088    0.3893   -3.9329 C.3       3 UNK         0.0250 
     28 CB         22.1673    0.8964   -3.7651 C.3       3 UNK        -0.1990 
     29 N          23.7779   -0.8610   -3.1862 N.am      3 UNK        -0.4232 
     30 C          24.9481   -1.2752   -2.6843 C.2       2 UNK         0.4993 
     31 O          25.9929   -0.6224   -2.7518 O.2       2 UNK        -0.5286 
     32 CA         24.9532   -2.6495   -2.0008 C.3       2 UNK         0.0209 
     33 CB         24.7848   -3.7875   -3.0285 C.3       2 UNK        -0.1931 
     34 N          26.2110   -2.8102   -1.2724 N.am      2 UNK        -0.4546 
     35 C          26.4163   -3.6534   -0.2541 C.2       1 UNK         0.5154 
     36 O          25.5607   -4.4443    0.1545 O.2       1 UNK        -0.5181 
     37 C          28.1538   -0.1042   -7.3972 C.2       5 UNK         0.5014 
     38 O          29.0497    0.2376   -8.1697 O.2       5 UNK        -0.5248 
     39 N          27.5992    0.7142   -6.4908 N.am      6 UNK        -0.4434 
     40 CA         27.9502    2.1240   -6.3277 C.3       6 UNK         0.0363 
     41 CB         27.4784    2.6257   -4.9536 C.3       6 UNK        -0.1936 
     42 C          27.3723    2.9800   -7.4630 C.2       6 UNK         0.5081 
     43 O          28.0782    3.8426   -7.9832 O.2       6 UNK        -0.5248 
     44 N          26.1242    2.6938   -7.8615 N.am      7 UNK        -0.4718 
     45 CA         25.4505    3.3067   -9.0100 C.3       7 UNK         0.0273 
     46 CB         23.9765    2.8717   -9.0329 C.3       7 UNK        -0.1935 
     47 C          26.1404    2.9804  -10.3464 C.2       7 UNK         0.5018 
     48 O          26.2810    3.8686  -11.1876 O.2       7 UNK        -0.5186 
     49 N          26.5883    1.7264  -10.5017 N.am      8 UNK        -0.4240 
     50 CA         27.3851    1.2593  -11.6400 C.3       8 UNK         0.0235 
     51 CB         27.3550   -0.2780  -11.6715 C.3       8 UNK        -0.2000 
     52 C          28.8443    1.7545  -11.6221 C.2       8 UNK         0.4941 
     53 O          29.4993    1.6961  -12.6634 O.2       8 UNK        -0.5273 
     54 N          29.3294    2.1980  -10.4511 N.am      9 UNK        -0.4262 
     55 CA         30.7127    2.5754  -10.1343 C.3       9 UNK         0.0264 
     56 CB         31.1252    3.8557  -10.8906 C.3       9 UNK        -0.1955 
     57 C          31.6910    1.4014  -10.3393 C.2       9 UNK         0.5031 
     58 O          32.7467    1.5687  -10.9539 O.2       9 UNK        -0.5390 
     59 N          31.2996    0.2210   -9.8395 N.am      10 UNK        -0.4204 
     60 CA         32.0205   -1.0430  -10.0093 C.3       10 UNK         0.0237 
     61 CB         31.0817   -2.2086   -9.6600 C.3       10 UNK        -0.1985 
     62 C          33.3181   -1.1317   -9.1877 C.2       10 UNK         0.4970 
     63 O          34.2429   -1.8269   -9.6106 O.2       10 UNK        -0.4914 
     64 N          33.3619   -0.4363   -8.0458 N.am      11 UNK        -0.4285 
     65 CA         34.5240   -0.3274   -7.1537 C.3       11 UNK         0.1007 
     66 C          34.8670    1.1657   -6.9210 C.2       11 UNK         0.5703 
     67 N          36.1308    1.4809   -6.6730 N.am      11 UNK        -0.7361 
     68 O          33.9972    2.0361   -6.9327 O.2       11 UNK        -0.4986 
     69 C69        34.2934   -1.0534   -5.8005 C.3       12 UNK        -0.0947 
     70 S70        33.9963   -2.8441   -5.9947 S.3       12 UNK        -0.2240 
     71 C71        33.8131   -3.3790   -4.2555 C.3       12 UNK         0.0194 
     72 H72        27.5751   -4.6873    4.2696 H         1 UNK         0.0906 
     73 H73        27.7365   -3.0317    4.8582 H         1 UNK         0.0906 
     74 H74        26.1347   -3.7056    4.5446 H         1 UNK         0.0906 
     75 H75        28.0377   -4.8851    2.0833 H         1 UNK         0.3140 
     76 H76        28.1997   -2.6143    0.3245 H         1 UNK         0.1085 
     77 H77        28.8712   -4.3069   -1.3983 H         1 UNK         0.0836 
     78 H78        28.3748   -5.5983   -0.3529 H         1 UNK         0.0836 
     79 H79        30.5911   -2.2810    0.5466 H         1 UNK         0.0731 
     80 H80        32.1727   -3.0068    0.5168 H         1 UNK         0.0731 
     81 H81        33.2368   -3.6891   -1.6424 H         1 UNK         0.1312 
     82 H82        31.5228   -2.0827   -5.2435 H         1 UNK         0.1406 
     83 H83        29.4225   -1.7389   -1.5451 H         1 UNK         0.1631 
     84 H84        29.6107   -0.5252   -4.9829 H         1 UNK         0.0717 
     85 H85        28.7280   -0.4478   -3.4840 H         1 UNK         0.0717 
     86 H86        29.5146   -2.3497   -6.6600 H         1 UNK         0.0934 
     87 H87        28.2532   -3.5266   -6.8241 H         1 UNK         0.0934 
     88 H88        27.7787   -1.8889   -8.4824 H         1 UNK         0.0739 
     89 H89        25.9170   -2.0945   -6.3381 H         1 UNK         0.3093 
     90 H90        23.1961   -0.4580   -7.9792 H         1 UNK         0.0818 
     91 H91        22.1455   -2.6440   -7.5103 H         1 UNK         0.0819 
     92 H92        23.2863   -2.8113   -8.8326 H         1 UNK         0.0819 
     93 H93        23.7208   -3.3859   -7.2289 H         1 UNK         0.0819 
     94 H94        23.2251   -1.6525   -5.4498 H         1 UNK         0.3041 
     95 H95        24.2782    1.1472   -3.5188 H         1 UNK         0.0784 
     96 H96        22.0215    1.8378   -4.2973 H         1 UNK         0.0793 
     97 H97        21.4367    0.1860   -4.1540 H         1 UNK         0.0793 
     98 H98        21.9320    1.0802   -2.7165 H         1 UNK         0.0793 
     99 H99        22.9572   -1.4374   -3.0644 H         1 UNK         0.3024 
    100 H100       24.1259   -2.6731   -1.2876 H         1 UNK         0.1171 
    101 H101       23.8528   -3.6882   -3.5854 H         1 UNK         0.0786 
    102 H102       24.7604   -4.7625   -2.5417 H         1 UNK         0.0786 
    103 H103       25.5992   -3.8006   -3.7527 H         1 UNK         0.0786 
    104 H104       26.9238   -2.1489   -1.5565 H         1 UNK         0.2977 
    105 H105       26.8490    0.3627   -5.9127 H         1 UNK         0.3127 
    106 H106       29.0385    2.2120   -6.3627 H         1 UNK         0.0770 
    107 H107       26.3940    2.5831   -4.8520 H         1 UNK         0.0814 
    108 H108       27.7779    3.6627   -4.7966 H         1 UNK         0.0814 
    109 H109       27.9125    2.0369   -4.1454 H         1 UNK         0.0814 
    110 H110       25.5923    2.0067   -7.3321 H         1 UNK         0.2983 
    111 H111       25.4862    4.3901   -8.8763 H         1 UNK         0.0947 
    112 H112       23.4433    3.3419   -9.8601 H         1 UNK         0.0806 
    113 H113       23.4655    3.1560   -8.1127 H         1 UNK         0.0806 
    114 H114       23.8754    1.7923   -9.1497 H         1 UNK         0.0806 
    115 H115       26.3451    1.0318   -9.7989 H         1 UNK         0.3000 
    116 H116       26.9237    1.6314  -12.5573 H         1 UNK         0.0850 
    117 H117       27.9064   -0.6643  -12.5298 H         1 UNK         0.0810 
    118 H118       26.3343   -0.6537  -11.7461 H         1 UNK         0.0810 
    119 H119       27.8044   -0.7062  -10.7748 H         1 UNK         0.0810 
    120 H120       28.7005    2.1862   -9.6588 H         1 UNK         0.3040 
    121 H121       30.7286    2.8036   -9.0672 H         1 UNK         0.0766 
    122 H122       32.1089    4.1985  -10.5676 H         1 UNK         0.0812 
    123 H123       30.4218    4.6675  -10.7053 H         1 UNK         0.0812 
    124 H124       31.1757    3.6937  -11.9677 H         1 UNK         0.0812 
    125 H125       30.4269    0.1897   -9.3108 H         1 UNK         0.3205 
    126 H126       32.2937   -1.1321  -11.0630 H         1 UNK         0.0754 
    127 H127       31.5697   -3.1687   -9.8340 H         1 UNK         0.0769 
    128 H128       30.1773   -2.1883  -10.2686 H         1 UNK         0.0769 
    129 H129       30.7838   -2.1803   -8.6126 H         1 UNK         0.0769 
    130 H130       32.5823    0.1598   -7.8090 H         1 UNK         0.2981 
    131 H131       35.3936   -0.7792   -7.6350 H         1 UNK         0.0541 
    132 H132       36.8508    0.7754   -6.6494 H         1 UNK         0.3459 
    133 H133       36.3703    2.4460   -6.5075 H         1 UNK         0.3459 
    134 H134       33.4528   -0.6056   -5.2689 H         1 UNK         0.0612 
    135 H135       35.1637   -0.9321   -5.1530 H         1 UNK         0.0612 
    136 H136       34.6900   -3.0448   -3.6991 H         1 UNK         0.0624 
    137 H137       33.8347   -4.4694   -4.2382 H         1 UNK         0.0624 
@<TRIPOS>BOND
     1    1    2 1    
     2    1   72 1    
     3    1   73 1    
     4    1   74 1    
     5    2    3 2    
     6    2    4 am   BACKBONE|DICT|INTERRES
     7    4    5 1    
     8    4   75 1    
     9    5    6 1    
    10    5   35 1    
    11    5   76 1    
    12    6    7 1    
    13    6   77 1    
    14    6   78 1    
    15    7    8 1    
    16    8    9 1    
    17    8   79 1    
    18    8   80 1    
    19    9   10 ar   
    20    9   14 ar   
    21   10   11 ar   
    22   10   81 1    
    23   11   12 ar   
    24   11   71 1    
    25   12   13 ar   
    26   12   82 1    
    27   13   14 ar   
    28   13   15 1    
    29   14   83 1    
    30   15   16 1    
    31   15   84 1    
    32   15   85 1    
    33   16   17 1    
    34   17   18 1    
    35   17   86 1    
    36   17   87 1    
    37   18   19 1    
    38   18   37 1    
    39   18   88 1    
    40   19   20 am   BACKBONE|DICT|INTERRES
    41   19   89 1    
    42   20   21 2    
    43   20   22 1    
    44   22   23 1    
    45   22   24 1    
    46   22   90 1    
    47   23   91 1    
    48   23   92 1    
    49   23   93 1    
    50   24   25 am   BACKBONE|DICT|INTERRES
    51   24   94 1    
    52   25   26 2    
    53   25   27 1    
    54   27   28 1    
    55   27   29 1    
    56   27   95 1    
    57   28   96 1    
    58   28   97 1    
    59   28   98 1    
    60   29   30 am   BACKBONE|DICT|INTERRES
    61   29   99 1    
    62   30   31 2    
    63   30   32 1    
    64   32   33 1    
    65   32   34 1    
    66   32  100 1    
    67   33  101 1    
    68   33  102 1    
    69   33  103 1    
    70   34   35 am   BACKBONE|DICT|INTERRES
    71   34  104 1    
    72   35   36 2    
    73   37   38 2    
    74   37   39 am   BACKBONE|DICT|INTERRES
    75   39   40 1    
    76   39  105 1    
    77   40   41 1    
    78   40   42 1    
    79   40  106 1    
    80   41  107 1    
    81   41  108 1    
    82   41  109 1    
    83   42   43 2    
    84   42   44 am   BACKBONE|DICT|INTERRES
    85   44   45 1    
    86   44  110 1    
    87   45   46 1    
    88   45   47 1    
    89   45  111 1    
    90   46  112 1    
    91   46  113 1    
    92   46  114 1    
    93   47   48 2    
    94   47   49 am   BACKBONE|DICT|INTERRES
    95   49   50 1    
    96   49  115 1    
    97   50   51 1    
    98   50   52 1    
    99   50  116 1    
   100   51  117 1    
   101   51  118 1    
   102   51  119 1    
   103   52   53 2    
   104   52   54 am   BACKBONE|DICT|INTERRES
   105   54   55 1    
   106   54  120 1    
   107   55   56 1    
   108   55   57 1    
   109   55  121 1    
   110   56  122 1    
   111   56  123 1    
   112   56  124 1    
   113   57   58 2    
   114   57   59 am   BACKBONE|DICT|INTERRES
   115   59   60 1    
   116   59  125 1    
   117   60   61 1    
   118   60   62 1    
   119   60  126 1    
   120   61  127 1    
   121   61  128 1    
   122   61  129 1    
   123   62   63 2    
   124   62   64 am   BACKBONE|DICT|INTERRES
   125   64   65 1    
   126   64  130 1    
   127   65   66 1    
   128   65   69 1    
   129   65  131 1    
   130   66   67 am   BACKBONE|DICT|INTERRES
   131   66   68 2    
   132   67  132 1    
   133   67  133 1    
   134   69   70 1    
   135   69  134 1    
   136   69  135 1    
   137   70   71 1    
   138   71  136 1    
   139   71  137 1    
@<TRIPOS>SUBSTRUCTURE
     1 UNK         1 GROUP             0       ****    0 ROOT    
