@<TRIPOS>MOLECULE
3R137
137   139    1
SMALL
USER_CHARGES


@<TRIPOS>ATOM
      1 CA         31.5634   -6.0873   -4.5772 C.3       0 UNK        -0.2020 
      2 C          30.1792   -6.1987   -3.9603 C.2       0 UNK         0.4855 
      3 O          29.7433   -7.3015   -3.6292 O.2       0 UNK        -0.5197 
      4 N          29.4875   -5.0638   -3.8002 N.am      1 UNK        -0.4892 
      5 CA         28.1507   -4.9905   -3.1900 C.3       1 UNK         0.0835 
      6 C6         27.9326   -3.6494   -2.4456 C.3       12 UNK        -0.0855 
      7 S7         28.8204   -3.6066   -0.8510 S.3       12 UNK        -0.2931 
      8 C8         30.4397   -2.8919   -1.2927 C.3       12 UNK         0.0378 
      9 C9         30.3485   -1.4447   -1.7576 C.ar      12 UNK        -0.0802 
     10 C10        30.7992   -1.0842   -3.0307 C.ar      12 UNK        -0.0944 
     11 C11        30.7432    0.2467   -3.4537 C.ar      12 UNK        -0.0787 
     12 C12        30.2504    1.2257   -2.5857 C.ar      12 UNK        -0.0862 
     13 C13        29.7746    0.8744   -1.3188 C.ar      12 UNK        -0.0733 
     14 C14        29.8349   -0.4605   -0.9077 C.ar      12 UNK        -0.0832 
     15 C15        29.1872    1.9272   -0.3908 C.3       12 UNK         0.0240 
     16 S16        27.4013    2.1518   -0.6835 S.3       12 UNK        -0.2522 
     17 C17        27.3839    3.3932   -2.0210 C.3       12 UNK        -0.0967 
     18 CA         27.1232    2.7838   -3.4205 C.3       5 UNK         0.0660 
     19 N          25.8266    2.1084   -3.5150 N.am      5 UNK        -0.4015 
     20 C          25.3750    1.4650   -4.5998 C.2       4 UNK         0.4946 
     21 O          25.9918    1.3985   -5.6693 O.2       4 UNK        -0.5353 
     22 CA         23.9860    0.8128   -4.4722 C.3       4 UNK         0.0277 
     23 CB         22.8809    1.8477   -4.7406 C.3       4 UNK        -0.1981 
     24 N          23.8322   -0.3006   -5.4101 N.am      4 UNK        -0.4209 
     25 C          24.4872   -1.4640   -5.3138 C.2       3 UNK         0.4942 
     26 O          25.1586   -1.7971   -4.3322 O.2       3 UNK        -0.5208 
     27 CA         24.4085   -2.3923   -6.5350 C.3       3 UNK         0.0250 
     28 CB         24.6971   -1.6401   -7.8541 C.3       3 UNK        -0.1990 
     29 N          25.3727   -3.4738   -6.3505 N.am      3 UNK        -0.4232 
     30 C          25.3477   -4.6671   -6.9526 C.2       2 UNK         0.4993 
     31 O          24.4875   -4.9938   -7.7716 O.2       2 UNK        -0.5286 
     32 CA         26.4702   -5.6696   -6.6138 C.3       2 UNK         0.0209 
     33 CB         27.3310   -5.9646   -7.8557 C.3       2 UNK        -0.1931 
     34 N          27.3572   -5.2711   -5.5131 N.am      2 UNK        -0.4546 
     35 C          27.0287   -5.2770   -4.2127 C.2       1 UNK         0.5154 
     36 O          25.8935   -5.5283   -3.8073 O.2       1 UNK        -0.5181 
     37 C          27.2787    3.8647   -4.5079 C.2       5 UNK         0.5014 
     38 O          26.4462    4.7700   -4.5892 O.2       5 UNK        -0.5248 
     39 N          28.3376    3.7257   -5.3171 N.am      6 UNK        -0.4434 
     40 CA         28.7299    4.5752   -6.4483 C.3       6 UNK         0.0363 
     41 CB         28.9824    6.0304   -5.9989 C.3       6 UNK        -0.1936 
     42 C          27.8005    4.5026   -7.6782 C.2       6 UNK         0.5081 
     43 O          28.0699    5.2022   -8.6557 O.2       6 UNK        -0.5248 
     44 N          26.7608    3.6530   -7.6567 N.am      7 UNK        -0.4718 
     45 CA         25.9218    3.3756   -8.8292 C.3       7 UNK         0.0273 
     46 CB         24.5702    2.7945   -8.3829 C.3       7 UNK        -0.1935 
     47 C          26.6298    2.4217   -9.8056 C.2       7 UNK         0.5018 
     48 O          26.5320    2.6051  -11.0192 O.2       7 UNK        -0.5186 
     49 N          27.3480    1.4450   -9.2407 N.am      8 UNK        -0.4240 
     50 CA         28.1973    0.4653   -9.9076 C.3       8 UNK         0.0235 
     51 CB         27.3747   -0.4823  -10.8127 C.3       8 UNK        -0.2000 
     52 C          28.9456   -0.2528   -8.7821 C.2       8 UNK         0.4941 
     53 O          29.9701    0.2482   -8.3158 O.2       8 UNK        -0.5273 
     54 N          28.3873   -1.3841   -8.3267 N.am      9 UNK        -0.4262 
     55 CA         28.7216   -2.1058   -7.0908 C.3       9 UNK         0.0264 
     56 CB         28.3206   -1.2506   -5.8722 C.3       9 UNK        -0.1955 
     57 C          30.1644   -2.6433   -6.9930 C.2       9 UNK         0.5031 
     58 O          30.5917   -3.0172   -5.8997 O.2       9 UNK        -0.5390 
     59 N          30.8593   -2.6945   -8.1379 N.am      10 UNK        -0.4204 
     60 CA         32.2688   -3.0463   -8.3421 C.3       10 UNK         0.0237 
     61 CB         32.6188   -4.4261   -7.7465 C.3       10 UNK        -0.1985 
     62 C          33.2662   -1.9458   -7.9225 C.2       10 UNK         0.4970 
     63 O          34.4593   -2.2396   -7.8278 O.2       10 UNK        -0.4914 
     64 N          32.8006   -0.7003   -7.7361 N.am      11 UNK        -0.4285 
     65 CA         33.6751    0.4787   -7.5776 C.3       11 UNK         0.1007 
     66 C          34.1719    1.0660   -8.9320 C.2       11 UNK         0.5703 
     67 N          33.6492    0.6460  -10.0790 N.am      11 UNK        -0.7361 
     68 O          35.0643    1.9107   -8.9434 O.2       11 UNK        -0.4986 
     69 C69        33.0281    1.5813   -6.6983 C.3       12 UNK        -0.0947 
     70 S70        32.9155    1.1050   -4.9418 S.3       12 UNK        -0.2240 
     71 C71        31.1748    0.6171   -4.8630 C.3       12 UNK         0.0194 
     72 H72        31.9331   -5.0627   -4.5447 H         1 UNK         0.0906 
     73 H73        32.2706   -6.7149   -4.0357 H         1 UNK         0.0906 
     74 H74        31.5394   -6.4157   -5.6156 H         1 UNK         0.0906 
     75 H75        29.8791   -4.1938   -4.1453 H         1 UNK         0.3140 
     76 H76        28.0637   -5.7895   -2.4495 H         1 UNK         0.1085 
     77 H77        26.8754   -3.5011   -2.2144 H         1 UNK         0.0836 
     78 H78        28.2208   -2.7966   -3.0569 H         1 UNK         0.0836 
     79 H79        30.9197   -3.5168   -2.0462 H         1 UNK         0.0731 
     80 H80        31.0858   -2.9329   -0.4148 H         1 UNK         0.0731 
     81 H81        31.1929   -1.8383   -3.6979 H         1 UNK         0.1312 
     82 H82        30.2170    2.2581   -2.9042 H         1 UNK         0.1406 
     83 H83        29.4740   -0.7389    0.0734 H         1 UNK         0.1631 
     84 H84        29.7179    2.8742   -0.4975 H         1 UNK         0.0717 
     85 H85        29.3303    1.6227    0.6471 H         1 UNK         0.0717 
     86 H86        26.6151    4.1311   -1.7824 H         1 UNK         0.0934 
     87 H87        28.3278    3.9417   -2.0094 H         1 UNK         0.0934 
     88 H88        27.8697    2.0098   -3.6009 H         1 UNK         0.0739 
     89 H89        25.2556    2.1341   -2.6833 H         1 UNK         0.3093 
     90 H90        23.8723    0.4261   -3.4570 H         1 UNK         0.0818 
     91 H91        22.9466    2.6837   -4.0429 H         1 UNK         0.0819 
     92 H92        22.9492    2.2601   -5.7477 H         1 UNK         0.0819 
     93 H93        21.8897    1.4091   -4.6241 H         1 UNK         0.0819 
     94 H94        23.3305   -0.1006   -6.2621 H         1 UNK         0.3041 
     95 H95        23.4034   -2.8180   -6.5673 H         1 UNK         0.0784 
     96 H96        23.8880   -0.9537   -8.1045 H         1 UNK         0.0793 
     97 H97        25.6117   -1.0506   -7.7880 H         1 UNK         0.0793 
     98 H98        24.7971   -2.3244   -8.6965 H         1 UNK         0.0793 
     99 H99        26.0368   -3.3088   -5.6048 H         1 UNK         0.3024 
    100 H100       25.9734   -6.5976   -6.3208 H         1 UNK         0.1171 
    101 H101       27.8557   -5.0779   -8.2113 H         1 UNK         0.0786 
    102 H102       28.0746   -6.7348   -7.6495 H         1 UNK         0.0786 
    103 H103       26.7163   -6.3283   -8.6804 H         1 UNK         0.0786 
    104 H104       28.3220   -5.0859   -5.7457 H         1 UNK         0.2977 
    105 H105       28.9250    2.9165   -5.1792 H         1 UNK         0.3127 
    106 H106       29.6865    4.1753   -6.7888 H         1 UNK         0.0770 
    107 H107       28.0588    6.5358   -5.7160 H         1 UNK         0.0814 
    108 H108       29.4341    6.6143   -6.8018 H         1 UNK         0.0814 
    109 H109       29.6636    6.0721   -5.1491 H         1 UNK         0.0814 
    110 H110       26.5840    3.1011   -6.8239 H         1 UNK         0.2983 
    111 H111       25.7280    4.3133   -9.3553 H         1 UNK         0.0947 
    112 H112       23.9067    2.6584   -9.2378 H         1 UNK         0.0806 
    113 H113       24.0654    3.4602   -7.6829 H         1 UNK         0.0806 
    114 H114       24.6817    1.8219   -7.9033 H         1 UNK         0.0806 
    115 H115       27.3717    1.4098   -8.2297 H         1 UNK         0.3000 
    116 H116       28.9356    0.9916  -10.5159 H         1 UNK         0.0850 
    117 H117       26.5104   -0.9033  -10.2984 H         1 UNK         0.0810 
    118 H118       27.9853   -1.3087  -11.1795 H         1 UNK         0.0810 
    119 H119       27.0016    0.0425  -11.6921 H         1 UNK         0.0810 
    120 H120       27.5744   -1.7246   -8.8210 H         1 UNK         0.3040 
    121 H121       28.0917   -2.9930   -7.0825 H         1 UNK         0.0766 
    122 H122       28.7767   -0.2636   -5.8920 H         1 UNK         0.0812 
    123 H123       27.2464   -1.0911   -5.8459 H         1 UNK         0.0812 
    124 H124       28.6002   -1.7192   -4.9322 H         1 UNK         0.0812 
    125 H125       30.3774   -2.3704   -8.9645 H         1 UNK         0.3205 
    126 H126       32.3818   -3.1349   -9.4235 H         1 UNK         0.0754 
    127 H127       33.5721   -4.7871   -8.1342 H         1 UNK         0.0769 
    128 H128       31.8647   -5.1739   -7.9917 H         1 UNK         0.0769 
    129 H129       32.7138   -4.3788   -6.6627 H         1 UNK         0.0769 
    130 H130       31.8108   -0.5073   -7.8490 H         1 UNK         0.2981 
    131 H131       34.5838    0.1627   -7.0615 H         1 UNK         0.0541 
    132 H132       33.9893    1.0331  -10.9450 H         1 UNK         0.3459 
    133 H133       32.9101   -0.0369  -10.0872 H         1 UNK         0.3459 
    134 H134       32.0445    1.8547   -7.0845 H         1 UNK         0.0612 
    135 H135       33.6232    2.4961   -6.7250 H         1 UNK         0.0612 
    136 H136       30.5502    1.4250   -5.2449 H         1 UNK         0.0624 
    137 H137       31.0333   -0.2302   -5.5322 H         1 UNK         0.0624 
@<TRIPOS>BOND
     1    1    2 1    
     2    1   72 1    
     3    1   73 1    
     4    1   74 1    
     5    2    3 2    
     6    2    4 am   BACKBONE|DICT|INTERRES
     7    4    5 1    
     8    4   75 1    
     9    5    6 1    
    10    5   35 1    
    11    5   76 1    
    12    6    7 1    
    13    6   77 1    
    14    6   78 1    
    15    7    8 1    
    16    8    9 1    
    17    8   79 1    
    18    8   80 1    
    19    9   10 ar   
    20    9   14 ar   
    21   10   11 ar   
    22   10   81 1    
    23   11   12 ar   
    24   11   71 1    
    25   12   13 ar   
    26   12   82 1    
    27   13   14 ar   
    28   13   15 1    
    29   14   83 1    
    30   15   16 1    
    31   15   84 1    
    32   15   85 1    
    33   16   17 1    
    34   17   18 1    
    35   17   86 1    
    36   17   87 1    
    37   18   19 1    
    38   18   37 1    
    39   18   88 1    
    40   19   20 am   BACKBONE|DICT|INTERRES
    41   19   89 1    
    42   20   21 2    
    43   20   22 1    
    44   22   23 1    
    45   22   24 1    
    46   22   90 1    
    47   23   91 1    
    48   23   92 1    
    49   23   93 1    
    50   24   25 am   BACKBONE|DICT|INTERRES
    51   24   94 1    
    52   25   26 2    
    53   25   27 1    
    54   27   28 1    
    55   27   29 1    
    56   27   95 1    
    57   28   96 1    
    58   28   97 1    
    59   28   98 1    
    60   29   30 am   BACKBONE|DICT|INTERRES
    61   29   99 1    
    62   30   31 2    
    63   30   32 1    
    64   32   33 1    
    65   32   34 1    
    66   32  100 1    
    67   33  101 1    
    68   33  102 1    
    69   33  103 1    
    70   34   35 am   BACKBONE|DICT|INTERRES
    71   34  104 1    
    72   35   36 2    
    73   37   38 2    
    74   37   39 am   BACKBONE|DICT|INTERRES
    75   39   40 1    
    76   39  105 1    
    77   40   41 1    
    78   40   42 1    
    79   40  106 1    
    80   41  107 1    
    81   41  108 1    
    82   41  109 1    
    83   42   43 2    
    84   42   44 am   BACKBONE|DICT|INTERRES
    85   44   45 1    
    86   44  110 1    
    87   45   46 1    
    88   45   47 1    
    89   45  111 1    
    90   46  112 1    
    91   46  113 1    
    92   46  114 1    
    93   47   48 2    
    94   47   49 am   BACKBONE|DICT|INTERRES
    95   49   50 1    
    96   49  115 1    
    97   50   51 1    
    98   50   52 1    
    99   50  116 1    
   100   51  117 1    
   101   51  118 1    
   102   51  119 1    
   103   52   53 2    
   104   52   54 am   BACKBONE|DICT|INTERRES
   105   54   55 1    
   106   54  120 1    
   107   55   56 1    
   108   55   57 1    
   109   55  121 1    
   110   56  122 1    
   111   56  123 1    
   112   56  124 1    
   113   57   58 2    
   114   57   59 am   BACKBONE|DICT|INTERRES
   115   59   60 1    
   116   59  125 1    
   117   60   61 1    
   118   60   62 1    
   119   60  126 1    
   120   61  127 1    
   121   61  128 1    
   122   61  129 1    
   123   62   63 2    
   124   62   64 am   BACKBONE|DICT|INTERRES
   125   64   65 1    
   126   64  130 1    
   127   65   66 1    
   128   65   69 1    
   129   65  131 1    
   130   66   67 am   BACKBONE|DICT|INTERRES
   131   66   68 2    
   132   67  132 1    
   133   67  133 1    
   134   69   70 1    
   135   69  134 1    
   136   69  135 1    
   137   70   71 1    
   138   71  136 1    
   139   71  137 1    
@<TRIPOS>SUBSTRUCTURE
     1 UNK         1 GROUP             0       ****    0 ROOT    
