@<TRIPOS>MOLECULE
3R137
137   139    1
SMALL
USER_CHARGES


@<TRIPOS>ATOM
      1 CA         24.6201   -5.7771   -3.3597 C.3       0 UNK        -0.2020 
      2 C          24.9405   -4.6294   -2.4149 C.2       0 UNK         0.4855 
      3 O          24.0211   -3.9564   -1.9502 O.2       0 UNK        -0.5197 
      4 N          26.2352   -4.4004   -2.1511 N.am      1 UNK        -0.4892 
      5 CA         26.8259   -3.3997   -1.2487 C.3       1 UNK         0.0835 
      6 C6         28.3679   -3.3379   -1.4054 C.3       12 UNK        -0.0855 
      7 S7         29.2193   -4.9522   -1.4376 S.3       12 UNK        -0.2931 
      8 C8         30.9619   -4.4384   -1.6472 C.3       12 UNK         0.0378 
      9 C9         31.1356   -3.3622   -2.7143 C.ar      12 UNK        -0.0802 
     10 C10        31.0677   -3.6888   -4.0710 C.ar      12 UNK        -0.0944 
     11 C11        31.1866   -2.6942   -5.0469 C.ar      12 UNK        -0.0787 
     12 C12        31.3699   -1.3621   -4.6580 C.ar      12 UNK        -0.0862 
     13 C13        31.4324   -1.0199   -3.3020 C.ar      12 UNK        -0.0733 
     14 C14        31.3262   -2.0285   -2.3390 C.ar      12 UNK        -0.0832 
     15 C15        31.6342    0.4252   -2.8482 C.3       12 UNK         0.0240 
     16 S16        30.5997    1.6586   -3.7120 S.3       12 UNK        -0.2522 
     17 C17        28.9077    0.9915   -3.5474 C.3       12 UNK        -0.0967 
     18 CA         28.2695    0.7378   -4.9397 C.3       5 UNK         0.0660 
     19 N          27.4205   -0.4550   -4.9474 N.am      5 UNK        -0.4015 
     20 C          27.0263   -1.0849   -6.0619 C.2       4 UNK         0.4946 
     21 O          27.3145   -0.7157   -7.1991 O.2       4 UNK        -0.5353 
     22 CA         26.1250   -2.3118   -5.8825 C.3       4 UNK         0.0277 
     23 CB         26.9549   -3.5255   -5.4344 C.3       4 UNK        -0.1981 
     24 N          25.0149   -2.0759   -4.9542 N.am      4 UNK        -0.4209 
     25 C          24.0013   -1.2278   -5.1841 C.2       3 UNK         0.4942 
     26 O          23.9327   -0.4999   -6.1736 O.2       3 UNK        -0.5208 
     27 CA         22.8779   -1.1803   -4.1361 C.3       3 UNK         0.0250 
     28 CB         21.9100   -2.3595   -4.3250 C.3       3 UNK        -0.1990 
     29 N          23.4034   -1.1876   -2.7706 N.am      3 UNK        -0.4232 
     30 C          23.8795   -0.0985   -2.1494 C.2       2 UNK         0.4993 
     31 O          23.8396    1.0344   -2.6278 O.2       2 UNK        -0.5286 
     32 CA         24.5523   -0.3063   -0.7788 C.3       2 UNK         0.0209 
     33 CB         23.5203   -0.1806    0.3534 C.3       2 UNK        -0.1931 
     34 N          25.2645   -1.5835   -0.6518 N.am      2 UNK        -0.4546 
     35 C          26.2465   -1.9862   -1.4695 C.2       1 UNK         0.5154 
     36 O          26.6663   -1.3052   -2.4080 O.2       1 UNK        -0.5181 
     37 C          27.5325    1.9821   -5.4829 C.2       5 UNK         0.5014 
     38 O          28.1774    2.8712   -6.0375 O.2       5 UNK        -0.5248 
     39 N          26.1973    2.0221   -5.3473 N.am      6 UNK        -0.4434 
     40 CA         25.3484    3.0406   -5.9686 C.3       6 UNK         0.0363 
     41 CB         23.9569    3.0357   -5.3171 C.3       6 UNK        -0.1936 
     42 C          25.2411    2.8515   -7.4915 C.2       6 UNK         0.5081 
     43 O          25.2641    3.8417   -8.2231 O.2       6 UNK        -0.5248 
     44 N          25.1304    1.5934   -7.9421 N.am      7 UNK        -0.4718 
     45 CA         25.0770    1.2213   -9.3566 C.3       7 UNK         0.0273 
     46 CB         24.5958   -0.2325   -9.4937 C.3       7 UNK        -0.1935 
     47 C          26.4183    1.4263  -10.0803 C.2       7 UNK         0.5018 
     48 O          26.4254    1.9863  -11.1779 O.2       7 UNK        -0.5186 
     49 N          27.5211    0.9792   -9.4661 N.am      8 UNK        -0.4240 
     50 CA         28.8702    1.0781  -10.0150 C.3       8 UNK         0.0235 
     51 CB         29.1384   -0.1001  -10.9723 C.3       8 UNK        -0.2000 
     52 C          29.8841    1.1231   -8.8674 C.2       8 UNK         0.4941 
     53 O          30.2799    0.0732   -8.3611 O.2       8 UNK        -0.5273 
     54 N          30.3033    2.3372   -8.4852 N.am      9 UNK        -0.4262 
     55 CA         31.3256    2.5667   -7.4571 C.3       9 UNK         0.0264 
     56 CB         31.3555    4.0560   -7.0787 C.3       9 UNK        -0.1955 
     57 C          32.7270    2.0900   -7.8778 C.2       9 UNK         0.5031 
     58 O          33.5063    1.6602   -7.0253 O.2       9 UNK        -0.5390 
     59 N          33.0171    2.1474   -9.1855 N.am      10 UNK        -0.4204 
     60 CA         34.2370    1.6353   -9.8115 C.3       10 UNK         0.0237 
     61 CB         34.4374    2.3407  -11.1661 C.3       10 UNK        -0.1985 
     62 C          34.1765    0.1016   -9.9437 C.2       10 UNK         0.4970 
     63 O          34.0622   -0.4217  -11.0536 O.2       10 UNK        -0.4914 
     64 N          34.2156   -0.5825   -8.7955 N.am      11 UNK        -0.4285 
     65 CA         34.1099   -2.0435   -8.6685 C.3       11 UNK         0.1007 
     66 C          35.3254   -2.8453   -9.2237 C.2       11 UNK         0.5703 
     67 N          36.4823   -2.2293   -9.4395 N.am      11 UNK        -0.7361 
     68 O          35.2151   -4.0429   -9.4743 O.2       11 UNK        -0.4986 
     69 C69        33.7728   -2.4420   -7.2047 C.3       12 UNK        -0.0947 
     70 S70        32.6295   -3.8602   -7.1080 S.3       12 UNK        -0.2240 
     71 C71        31.1003   -3.0653   -6.5202 C.3       12 UNK         0.0194 
     72 H72        25.5167   -6.3099   -3.6761 H         1 UNK         0.0906 
     73 H73        23.9589   -6.4907   -2.8688 H         1 UNK         0.0906 
     74 H74        24.1147   -5.4024   -4.2494 H         1 UNK         0.0906 
     75 H75        26.9253   -5.0120   -2.5658 H         1 UNK         0.3140 
     76 H76        26.5997   -3.7123   -0.2276 H         1 UNK         0.1085 
     77 H77        28.8052   -2.7303   -0.6107 H         1 UNK         0.0836 
     78 H78        28.6179   -2.8408   -2.3437 H         1 UNK         0.0836 
     79 H79        31.5609   -5.3120   -1.9085 H         1 UNK         0.0731 
     80 H80        31.3424   -4.0867   -0.6870 H         1 UNK         0.0731 
     81 H81        30.9132   -4.7173   -4.3678 H         1 UNK         0.1312 
     82 H82        31.4571   -0.5901   -5.4111 H         1 UNK         0.1406 
     83 H83        31.3740   -1.7735   -1.2889 H         1 UNK         0.1631 
     84 H84        32.6820    0.6904   -2.9944 H         1 UNK         0.0717 
     85 H85        31.4413    0.5199   -1.7785 H         1 UNK         0.0717 
     86 H86        28.9574    0.0647   -2.9743 H         1 UNK         0.0934 
     87 H87        28.3056    1.6704   -2.9402 H         1 UNK         0.0934 
     88 H88        29.0729    0.5260   -5.6498 H         1 UNK         0.0739 
     89 H89        27.1237   -0.8115   -4.0383 H         1 UNK         0.3093 
     90 H90        25.6918   -2.5447   -6.8578 H         1 UNK         0.0818 
     91 H91        27.4244   -3.3617   -4.4646 H         1 UNK         0.0819 
     92 H92        26.3453   -4.4261   -5.3744 H         1 UNK         0.0819 
     93 H93        27.7556   -3.7289   -6.1466 H         1 UNK         0.0819 
     94 H94        25.0253   -2.5869   -4.0849 H         1 UNK         0.3041 
     95 H95        22.3145   -0.2577   -4.2941 H         1 UNK         0.0784 
     96 H96        21.4924   -2.3627   -5.3328 H         1 UNK         0.0793 
     97 H97        22.4018   -3.3207   -4.1724 H         1 UNK         0.0793 
     98 H98        21.0736   -2.2988   -3.6286 H         1 UNK         0.0793 
     99 H99        23.4994   -2.0916   -2.3147 H         1 UNK         0.3024 
    100 H100       25.2897    0.4912   -0.6628 H         1 UNK         0.1171 
    101 H101       23.9975   -0.2214    1.3327 H         1 UNK         0.0786 
    102 H102       22.9893    0.7707    0.2934 H         1 UNK         0.0786 
    103 H103       22.7735   -0.9744    0.3087 H         1 UNK         0.0786 
    104 H104       24.9317   -2.2201    0.0586 H         1 UNK         0.2977 
    105 H105       25.7290    1.2612   -4.8760 H         1 UNK         0.3127 
    106 H106       25.7989    4.0191   -5.7873 H         1 UNK         0.0770 
    107 H107       23.4583    2.0723   -5.4268 H         1 UNK         0.0814 
    108 H108       23.3119    3.7900   -5.7698 H         1 UNK         0.0814 
    109 H109       24.0185    3.2608   -4.2524 H         1 UNK         0.0814 
    110 H110       25.0548    0.8357   -7.2711 H         1 UNK         0.2983 
    111 H111       24.3403    1.8645   -9.8433 H         1 UNK         0.0947 
    112 H112       24.5288   -0.5246  -10.5425 H         1 UNK         0.0806 
    113 H113       23.6061   -0.3642   -9.0559 H         1 UNK         0.0806 
    114 H114       25.2723   -0.9320   -9.0021 H         1 UNK         0.0806 
    115 H115       27.4370    0.4900   -8.5735 H         1 UNK         0.3000 
    116 H116       28.9642    2.0059  -10.5839 H         1 UNK         0.0850 
    117 H117       30.1635   -0.0757  -11.3447 H         1 UNK         0.0810 
    118 H118       28.4771   -0.0677  -11.8383 H         1 UNK         0.0810 
    119 H119       28.9933   -1.0610  -10.4766 H         1 UNK         0.0810 
    120 H120       29.8954    3.1563   -8.9130 H         1 UNK         0.3040 
    121 H121       31.0389    1.9948   -6.5736 H         1 UNK         0.0766 
    122 H122       30.3887    4.3872   -6.6992 H         1 UNK         0.0812 
    123 H123       31.6196    4.6870   -7.9282 H         1 UNK         0.0812 
    124 H124       32.0885    4.2413   -6.2922 H         1 UNK         0.0812 
    125 H125       32.3027    2.4910   -9.8100 H         1 UNK         0.3205 
    126 H126       35.0921    1.8806   -9.1776 H         1 UNK         0.0754 
    127 H127       35.3466    1.9907  -11.6570 H         1 UNK         0.0769 
    128 H128       34.5343    3.4193  -11.0403 H         1 UNK         0.0769 
    129 H129       33.6065    2.1561  -11.8483 H         1 UNK         0.0769 
    130 H130       34.2527   -0.0514   -7.9325 H         1 UNK         0.2981 
    131 H131       33.2615   -2.3230   -9.2965 H         1 UNK         0.0541 
    132 H132       36.5848   -1.2478   -9.2383 H         1 UNK         0.3459 
    133 H133       37.2608   -2.7550   -9.8048 H         1 UNK         0.3459 
    134 H134       34.6737   -2.6742   -6.6336 H         1 UNK         0.0612 
    135 H135       33.3146   -1.6028   -6.6809 H         1 UNK         0.0612 
    136 H136       30.2675   -3.7534   -6.6698 H         1 UNK         0.0624 
    137 H137       30.8848   -2.1893   -7.1329 H         1 UNK         0.0624 
@<TRIPOS>BOND
     1    1    2 1    
     2    1   72 1    
     3    1   73 1    
     4    1   74 1    
     5    2    3 2    
     6    2    4 am   BACKBONE|DICT|INTERRES
     7    4    5 1    
     8    4   75 1    
     9    5    6 1    
    10    5   35 1    
    11    5   76 1    
    12    6    7 1    
    13    6   77 1    
    14    6   78 1    
    15    7    8 1    
    16    8    9 1    
    17    8   79 1    
    18    8   80 1    
    19    9   10 ar   
    20    9   14 ar   
    21   10   11 ar   
    22   10   81 1    
    23   11   12 ar   
    24   11   71 1    
    25   12   13 ar   
    26   12   82 1    
    27   13   14 ar   
    28   13   15 1    
    29   14   83 1    
    30   15   16 1    
    31   15   84 1    
    32   15   85 1    
    33   16   17 1    
    34   17   18 1    
    35   17   86 1    
    36   17   87 1    
    37   18   19 1    
    38   18   37 1    
    39   18   88 1    
    40   19   20 am   BACKBONE|DICT|INTERRES
    41   19   89 1    
    42   20   21 2    
    43   20   22 1    
    44   22   23 1    
    45   22   24 1    
    46   22   90 1    
    47   23   91 1    
    48   23   92 1    
    49   23   93 1    
    50   24   25 am   BACKBONE|DICT|INTERRES
    51   24   94 1    
    52   25   26 2    
    53   25   27 1    
    54   27   28 1    
    55   27   29 1    
    56   27   95 1    
    57   28   96 1    
    58   28   97 1    
    59   28   98 1    
    60   29   30 am   BACKBONE|DICT|INTERRES
    61   29   99 1    
    62   30   31 2    
    63   30   32 1    
    64   32   33 1    
    65   32   34 1    
    66   32  100 1    
    67   33  101 1    
    68   33  102 1    
    69   33  103 1    
    70   34   35 am   BACKBONE|DICT|INTERRES
    71   34  104 1    
    72   35   36 2    
    73   37   38 2    
    74   37   39 am   BACKBONE|DICT|INTERRES
    75   39   40 1    
    76   39  105 1    
    77   40   41 1    
    78   40   42 1    
    79   40  106 1    
    80   41  107 1    
    81   41  108 1    
    82   41  109 1    
    83   42   43 2    
    84   42   44 am   BACKBONE|DICT|INTERRES
    85   44   45 1    
    86   44  110 1    
    87   45   46 1    
    88   45   47 1    
    89   45  111 1    
    90   46  112 1    
    91   46  113 1    
    92   46  114 1    
    93   47   48 2    
    94   47   49 am   BACKBONE|DICT|INTERRES
    95   49   50 1    
    96   49  115 1    
    97   50   51 1    
    98   50   52 1    
    99   50  116 1    
   100   51  117 1    
   101   51  118 1    
   102   51  119 1    
   103   52   53 2    
   104   52   54 am   BACKBONE|DICT|INTERRES
   105   54   55 1    
   106   54  120 1    
   107   55   56 1    
   108   55   57 1    
   109   55  121 1    
   110   56  122 1    
   111   56  123 1    
   112   56  124 1    
   113   57   58 2    
   114   57   59 am   BACKBONE|DICT|INTERRES
   115   59   60 1    
   116   59  125 1    
   117   60   61 1    
   118   60   62 1    
   119   60  126 1    
   120   61  127 1    
   121   61  128 1    
   122   61  129 1    
   123   62   63 2    
   124   62   64 am   BACKBONE|DICT|INTERRES
   125   64   65 1    
   126   64  130 1    
   127   65   66 1    
   128   65   69 1    
   129   65  131 1    
   130   66   67 am   BACKBONE|DICT|INTERRES
   131   66   68 2    
   132   67  132 1    
   133   67  133 1    
   134   69   70 1    
   135   69  134 1    
   136   69  135 1    
   137   70   71 1    
   138   71  136 1    
   139   71  137 1    
@<TRIPOS>SUBSTRUCTURE
     1 UNK         1 GROUP             0       ****    0 ROOT    
