@<TRIPOS>MOLECULE
3R137
137   139    1
SMALL
USER_CHARGES


@<TRIPOS>ATOM
      1 CA         26.3706   -1.1318    4.7264 C.3       0 UNK        -0.2020 
      2 C          26.3889   -0.6655    3.2782 C.2       0 UNK         0.4855 
      3 O          25.9575    0.4513    2.9893 O.2       0 UNK        -0.5197 
      4 N          26.8922   -1.5072    2.3666 N.am      1 UNK        -0.4892 
      5 CA         26.9191   -1.2523    0.9236 C.3       1 UNK         0.0835 
      6 C6         27.9203   -2.1990    0.2151 C.3       12 UNK        -0.0855 
      7 S7         28.2733   -1.6904   -1.4996 S.3       12 UNK        -0.2931 
      8 C8         29.9858   -2.2659   -1.7111 C.3       12 UNK         0.0378 
      9 C9         30.3874   -2.2218   -3.1777 C.ar      12 UNK        -0.0802 
     10 C10        31.1181   -1.1445   -3.6894 C.ar      12 UNK        -0.0944 
     11 C11        31.4567   -1.0988   -5.0463 C.ar      12 UNK        -0.0787 
     12 C12        31.0571   -2.1392   -5.8924 C.ar      12 UNK        -0.0862 
     13 C13        30.3333   -3.2231   -5.3894 C.ar      12 UNK        -0.0733 
     14 C14        30.0080   -3.2612   -4.0310 C.ar      12 UNK        -0.0832 
     15 C15        29.9059   -4.3639   -6.2989 C.3       12 UNK         0.0240 
     16 S16        28.1306   -4.2773   -6.6953 S.3       12 UNK        -0.2522 
     17 C17        28.1021   -3.4068   -8.3015 C.3       12 UNK        -0.0967 
     18 CA         27.3702   -2.0424   -8.2962 C.3       5 UNK         0.0660 
     19 N          26.0315   -2.1261   -7.6972 N.am      5 UNK        -0.4015 
     20 C          25.0998   -1.1661   -7.7502 C.2       4 UNK         0.4946 
     21 O          25.2429   -0.1289   -8.3980 O.2       4 UNK        -0.5353 
     22 CA         23.8508   -1.3285   -6.8653 C.3       4 UNK         0.0277 
     23 CB         22.7509   -2.1310   -7.5870 C.3       4 UNK        -0.1981 
     24 N          24.1355   -1.8518   -5.5161 N.am      4 UNK        -0.4209 
     25 C          24.5229   -3.0859   -5.1567 C.2       3 UNK         0.4942 
     26 O          24.6815   -4.0003   -5.9655 O.2       3 UNK        -0.5208 
     27 CA         24.8446   -3.3454   -3.6696 C.3       3 UNK         0.0250 
     28 CB         26.2313   -3.9949   -3.5165 C.3       3 UNK        -0.1990 
     29 N          24.8043   -2.1509   -2.8189 N.am      3 UNK        -0.4232 
     30 C          23.6978   -1.6051   -2.2952 C.2       2 UNK         0.4993 
     31 O          22.5611   -2.0115   -2.5400 O.2       2 UNK        -0.5286 
     32 CA         23.9036   -0.3932   -1.3611 C.3       2 UNK         0.0209 
     33 CB         22.6944   -0.1357   -0.4354 C.3       2 UNK        -0.1931 
     34 N          25.1561   -0.4576   -0.5905 N.am      2 UNK        -0.4546 
     35 C          25.4982   -1.3751    0.3288 C.2       1 UNK         0.5154 
     36 O          24.7702   -2.3051    0.6866 O.2       1 UNK        -0.5181 
     37 C          28.2329   -0.9029   -7.7047 C.2       5 UNK         0.5014 
     38 O          29.1508   -0.4269   -8.3770 O.2       5 UNK        -0.5248 
     39 N          27.8896   -0.4475   -6.4909 N.am      6 UNK        -0.4434 
     40 CA         28.4322    0.7491   -5.8510 C.3       6 UNK         0.0363 
     41 CB         28.0314    0.7599   -4.3704 C.3       6 UNK        -0.1936 
     42 C          27.9932    2.0541   -6.5319 C.2       6 UNK         0.5081 
     43 O          28.7963    2.9818   -6.6128 O.2       6 UNK        -0.5248 
     44 N          26.7509    2.1030   -7.0367 N.am      7 UNK        -0.4718 
     45 CA         26.2191    3.2447   -7.7900 C.3       7 UNK         0.0273 
     46 CB         24.6832    3.1881   -7.8184 C.3       7 UNK        -0.1935 
     47 C          26.7964    3.3040   -9.2131 C.2       7 UNK         0.5018 
     48 O          27.0168    4.3976   -9.7338 O.2       7 UNK        -0.5186 
     49 N          27.0789    2.1276   -9.7917 N.am      8 UNK        -0.4240 
     50 CA         27.8347    1.9717  -11.0383 C.3       8 UNK         0.0235 
     51 CB         27.6175    0.5494  -11.5809 C.3       8 UNK        -0.2000 
     52 C          29.3427    2.2552  -10.8747 C.2       8 UNK         0.4941 
     53 O          30.0230    2.4477  -11.8827 O.2       8 UNK        -0.5273 
     54 N          29.8321    2.2564   -9.6237 N.am      9 UNK        -0.4262 
     55 CA         31.2249    2.4192   -9.1925 C.3       9 UNK         0.0264 
     56 CB         31.7374    3.8403   -9.5062 C.3       9 UNK        -0.1955 
     57 C          32.1478    1.3103   -9.7328 C.2       9 UNK         0.5031 
     58 O          33.2977    1.5812  -10.0862 O.2       9 UNK        -0.5390 
     59 N          31.6339    0.0711   -9.7752 N.am      10 UNK        -0.4204 
     60 CA         32.3023   -1.0956  -10.3663 C.3       10 UNK         0.0237 
     61 CB         31.3256   -2.2798  -10.3845 C.3       10 UNK        -0.1985 
     62 C          33.6104   -1.5032   -9.6647 C.2       10 UNK         0.4970 
     63 O          34.4683   -2.1175  -10.2995 O.2       10 UNK        -0.4914 
     64 N          33.7356   -1.1540   -8.3794 N.am      11 UNK        -0.4285 
     65 CA         34.9396   -1.3440   -7.5636 C.3       11 UNK         0.1007 
     66 C          36.0837   -0.3239   -7.8466 C.2       11 UNK         0.5703 
     67 N          35.8800    0.7069   -8.6614 N.am      11 UNK        -0.7361 
     68 O          37.1863   -0.4830   -7.3281 O.2       11 UNK        -0.4986 
     69 C69        34.5813   -1.4672   -6.0574 C.3       12 UNK        -0.0947 
     70 S70        33.9927    0.0705   -5.2595 S.3       12 UNK        -0.2240 
     71 C71        32.2054    0.1008   -5.6101 C.3       12 UNK         0.0194 
     72 H72        26.7943   -2.1295    4.8399 H         1 UNK         0.0906 
     73 H73        26.9458   -0.4468    5.3487 H         1 UNK         0.0906 
     74 H74        25.3472   -1.1539    5.1001 H         1 UNK         0.0906 
     75 H75        27.1969   -2.4260    2.6560 H         1 UNK         0.3140 
     76 H76        27.2665   -0.2257    0.7837 H         1 UNK         0.1085 
     77 H77        28.8628   -2.2091    0.7655 H         1 UNK         0.0836 
     78 H78        27.5584   -3.2294    0.2141 H         1 UNK         0.0836 
     79 H79        30.0785   -3.2863   -1.3358 H         1 UNK         0.0731 
     80 H80        30.6550   -1.6493   -1.1089 H         1 UNK         0.0731 
     81 H81        31.4097   -0.3330   -3.0369 H         1 UNK         0.1312 
     82 H82        31.3007   -2.1027   -6.9444 H         1 UNK         0.1406 
     83 H83        29.4403   -4.0949   -3.6402 H         1 UNK         0.1631 
     84 H84        30.0987   -5.3107   -5.7923 H         1 UNK         0.0717 
     85 H85        30.5044   -4.3881   -7.2105 H         1 UNK         0.0717 
     86 H86        29.1119   -3.3020   -8.6930 H         1 UNK         0.0934 
     87 H87        27.5979   -4.0697   -9.0064 H         1 UNK         0.0934 
     88 H88        27.2144   -1.7702   -9.3416 H         1 UNK         0.0739 
     89 H89        25.8264   -2.9586   -7.1498 H         1 UNK         0.3093 
     90 H90        23.4580   -0.3227   -6.7063 H         1 UNK         0.0818 
     91 H91        22.4688   -1.6446   -8.5217 H         1 UNK         0.0819 
     92 H92        23.0731   -3.1421   -7.8370 H         1 UNK         0.0819 
     93 H93        21.8509   -2.2068   -6.9769 H         1 UNK         0.0819 
     94 H94        24.0381   -1.1790   -4.7692 H         1 UNK         0.3041 
     95 H95        24.0988   -4.0552   -3.3054 H         1 UNK         0.0784 
     96 H96        26.2944   -4.9329   -4.0697 H         1 UNK         0.0793 
     97 H97        27.0208   -3.3427   -3.8913 H         1 UNK         0.0793 
     98 H98        26.4519   -4.2231   -2.4734 H         1 UNK         0.0793 
     99 H99        25.6985   -1.7604   -2.5546 H         1 UNK         0.3024 
    100 H100       23.9951    0.4727   -2.0192 H         1 UNK         0.1171 
    101 H101       22.8633    0.7283    0.2073 H         1 UNK         0.0786 
    102 H102       21.7930    0.0657   -1.0156 H         1 UNK         0.0786 
    103 H103       22.4817   -0.9929    0.2041 H         1 UNK         0.0786 
    104 H104       25.8374    0.2548   -0.8165 H         1 UNK         0.2977 
    105 H105       27.1571   -0.9332   -5.9972 H         1 UNK         0.3127 
    106 H106       29.5178    0.7008   -5.9159 H         1 UNK         0.0770 
    107 H107       26.9501    0.8082   -4.2378 H         1 UNK         0.0814 
    108 H108       28.4657    1.6166   -3.8533 H         1 UNK         0.0814 
    109 H109       28.3929   -0.1351   -3.8694 H         1 UNK         0.0814 
    110 H110       26.1678    1.2770   -7.0012 H         1 UNK         0.2983 
    111 H111       26.5128    4.1632   -7.2762 H         1 UNK         0.0947 
    112 H112       24.2735    4.0696   -8.3132 H         1 UNK         0.0806 
    113 H113       24.2676    3.1608   -6.8111 H         1 UNK         0.0806 
    114 H114       24.3148    2.3157   -8.3583 H         1 UNK         0.0806 
    115 H115       26.7956    1.2821   -9.3117 H         1 UNK         0.3000 
    116 H116       27.4422    2.6829  -11.7683 H         1 UNK         0.0850 
    117 H117       28.0789    0.4347  -12.5627 H         1 UNK         0.0810 
    118 H118       26.5575    0.3203  -11.6922 H         1 UNK         0.0810 
    119 H119       28.0601   -0.2028  -10.9282 H         1 UNK         0.0810 
    120 H120       29.1781    2.0626   -8.8780 H         1 UNK         0.3040 
    121 H121       31.2194    2.3053   -8.1075 H         1 UNK         0.0766 
    122 H122       31.8252    4.0118  -10.5794 H         1 UNK         0.0812 
    123 H123       32.7230    4.0057   -9.0694 H         1 UNK         0.0812 
    124 H124       31.0710    4.5999   -9.0974 H         1 UNK         0.0812 
    125 H125       30.6919   -0.0724   -9.4135 H         1 UNK         0.3205 
    126 H126       32.5504   -0.8384  -11.3981 H         1 UNK         0.0754 
    127 H127       31.7416   -3.1195  -10.9430 H         1 UNK         0.0769 
    128 H128       30.3774   -2.0144  -10.8530 H         1 UNK         0.0769 
    129 H129       31.1213   -2.6324   -9.3747 H         1 UNK         0.0769 
    130 H130       32.9955   -0.6209   -7.9542 H         1 UNK         0.2981 
    131 H131       35.3577   -2.3111   -7.8494 H         1 UNK         0.0541 
    132 H132       36.6366    1.3489   -8.8343 H         1 UNK         0.3459 
    133 H133       34.9831    0.8585   -9.1081 H         1 UNK         0.3459 
    134 H134       35.4620   -1.7965   -5.5036 H         1 UNK         0.0612 
    135 H135       33.8476   -2.2595   -5.9102 H         1 UNK         0.0612 
    136 H136       32.0385    0.1892   -6.6829 H         1 UNK         0.0624 
    137 H137       31.7951    1.0128   -5.1740 H         1 UNK         0.0624 
@<TRIPOS>BOND
     1    1    2 1    
     2    1   72 1    
     3    1   73 1    
     4    1   74 1    
     5    2    3 2    
     6    2    4 am   BACKBONE|DICT|INTERRES
     7    4    5 1    
     8    4   75 1    
     9    5    6 1    
    10    5   35 1    
    11    5   76 1    
    12    6    7 1    
    13    6   77 1    
    14    6   78 1    
    15    7    8 1    
    16    8    9 1    
    17    8   79 1    
    18    8   80 1    
    19    9   10 ar   
    20    9   14 ar   
    21   10   11 ar   
    22   10   81 1    
    23   11   12 ar   
    24   11   71 1    
    25   12   13 ar   
    26   12   82 1    
    27   13   14 ar   
    28   13   15 1    
    29   14   83 1    
    30   15   16 1    
    31   15   84 1    
    32   15   85 1    
    33   16   17 1    
    34   17   18 1    
    35   17   86 1    
    36   17   87 1    
    37   18   19 1    
    38   18   37 1    
    39   18   88 1    
    40   19   20 am   BACKBONE|DICT|INTERRES
    41   19   89 1    
    42   20   21 2    
    43   20   22 1    
    44   22   23 1    
    45   22   24 1    
    46   22   90 1    
    47   23   91 1    
    48   23   92 1    
    49   23   93 1    
    50   24   25 am   BACKBONE|DICT|INTERRES
    51   24   94 1    
    52   25   26 2    
    53   25   27 1    
    54   27   28 1    
    55   27   29 1    
    56   27   95 1    
    57   28   96 1    
    58   28   97 1    
    59   28   98 1    
    60   29   30 am   BACKBONE|DICT|INTERRES
    61   29   99 1    
    62   30   31 2    
    63   30   32 1    
    64   32   33 1    
    65   32   34 1    
    66   32  100 1    
    67   33  101 1    
    68   33  102 1    
    69   33  103 1    
    70   34   35 am   BACKBONE|DICT|INTERRES
    71   34  104 1    
    72   35   36 2    
    73   37   38 2    
    74   37   39 am   BACKBONE|DICT|INTERRES
    75   39   40 1    
    76   39  105 1    
    77   40   41 1    
    78   40   42 1    
    79   40  106 1    
    80   41  107 1    
    81   41  108 1    
    82   41  109 1    
    83   42   43 2    
    84   42   44 am   BACKBONE|DICT|INTERRES
    85   44   45 1    
    86   44  110 1    
    87   45   46 1    
    88   45   47 1    
    89   45  111 1    
    90   46  112 1    
    91   46  113 1    
    92   46  114 1    
    93   47   48 2    
    94   47   49 am   BACKBONE|DICT|INTERRES
    95   49   50 1    
    96   49  115 1    
    97   50   51 1    
    98   50   52 1    
    99   50  116 1    
   100   51  117 1    
   101   51  118 1    
   102   51  119 1    
   103   52   53 2    
   104   52   54 am   BACKBONE|DICT|INTERRES
   105   54   55 1    
   106   54  120 1    
   107   55   56 1    
   108   55   57 1    
   109   55  121 1    
   110   56  122 1    
   111   56  123 1    
   112   56  124 1    
   113   57   58 2    
   114   57   59 am   BACKBONE|DICT|INTERRES
   115   59   60 1    
   116   59  125 1    
   117   60   61 1    
   118   60   62 1    
   119   60  126 1    
   120   61  127 1    
   121   61  128 1    
   122   61  129 1    
   123   62   63 2    
   124   62   64 am   BACKBONE|DICT|INTERRES
   125   64   65 1    
   126   64  130 1    
   127   65   66 1    
   128   65   69 1    
   129   65  131 1    
   130   66   67 am   BACKBONE|DICT|INTERRES
   131   66   68 2    
   132   67  132 1    
   133   67  133 1    
   134   69   70 1    
   135   69  134 1    
   136   69  135 1    
   137   70   71 1    
   138   71  136 1    
   139   71  137 1    
@<TRIPOS>SUBSTRUCTURE
     1 UNK         1 GROUP             0       ****    0 ROOT    
