@<TRIPOS>MOLECULE
3R137
137   139    1
SMALL
USER_CHARGES


@<TRIPOS>ATOM
      1 CA         29.3356   -1.2516    2.8508 C.3       0 UNK        -0.2020 
      2 C          29.1111   -0.7465    1.4336 C.2       0 UNK         0.4855 
      3 O          29.0792    0.4641    1.2130 O.2       0 UNK        -0.5197 
      4 N          28.9508   -1.6649    0.4714 N.am      1 UNK        -0.4892 
      5 CA         28.7456   -1.3624   -0.9550 C.3       1 UNK         0.0835 
      6 C6         29.1323   -2.5590   -1.8626 C.3       12 UNK        -0.0855 
      7 S7         30.8695   -3.0608   -1.5991 S.3       12 UNK        -0.2931 
      8 C8         30.9108   -4.7206   -2.3448 C.3       12 UNK         0.0378 
      9 C9         30.9717   -4.6523   -3.8632 C.ar      12 UNK        -0.0802 
     10 C10        32.1610   -4.2810   -4.4989 C.ar      12 UNK        -0.0944 
     11 C11        32.2279   -4.2135   -5.8930 C.ar      12 UNK        -0.0787 
     12 C12        31.0950   -4.5185   -6.6519 C.ar      12 UNK        -0.0862 
     13 C13        29.8989   -4.8880   -6.0296 C.ar      12 UNK        -0.0733 
     14 C14        29.8472   -4.9648   -4.6330 C.ar      12 UNK        -0.0832 
     15 C15        28.6654   -5.1799   -6.8783 C.3       12 UNK         0.0240 
     16 S16        27.1845   -4.2619   -6.3367 S.3       12 UNK        -0.2522 
     17 C17        27.7830   -2.5367   -6.2896 C.3       12 UNK        -0.0967 
     18 CA         27.1351   -1.6274   -7.3596 C.3       5 UNK         0.0660 
     19 N          25.6731   -1.6842   -7.2999 N.am      5 UNK        -0.4015 
     20 C          24.7857   -0.8771   -7.8989 C.2       4 UNK         0.4946 
     21 O          25.0820   -0.0311   -8.7446 O.2       4 UNK        -0.5353 
     22 CA         23.3296   -0.9737   -7.4000 C.3       4 UNK         0.0277 
     23 CB         22.4810   -1.7858   -8.3906 C.3       4 UNK        -0.1981 
     24 N          23.1850   -1.5424   -6.0475 N.am      4 UNK        -0.4209 
     25 C          23.7944   -1.0878   -4.9404 C.2       3 UNK         0.4942 
     26 O          24.5352   -0.0994   -4.9258 O.2       3 UNK        -0.5208 
     27 CA         23.6106   -1.9174   -3.6627 C.3       3 UNK         0.0250 
     28 CB         24.1616   -3.3485   -3.8332 C.3       3 UNK        -0.1990 
     29 N          24.3235   -1.2469   -2.5813 N.am      3 UNK        -0.4232 
     30 C          24.1172   -1.3971   -1.2723 C.2       2 UNK         0.4993 
     31 O          23.2897   -2.1747   -0.7921 O.2       2 UNK        -0.5286 
     32 CA         25.0047   -0.5403   -0.3518 C.3       2 UNK         0.0209 
     33 CB         24.4638   -0.4702    1.0890 C.3       2 UNK        -0.1931 
     34 N          26.3839   -1.0314   -0.3107 N.am      2 UNK        -0.4546 
     35 C          27.3161   -0.8567   -1.2599 C.2       1 UNK         0.5154 
     36 O          27.0898   -0.2990   -2.3347 O.2       1 UNK        -0.5181 
     37 C          27.6948   -0.2012   -7.1928 C.2       5 UNK         0.5014 
     38 O          28.6311    0.1556   -7.9070 O.2       5 UNK        -0.5248 
     39 N          27.0965    0.5952   -6.2917 N.am      6 UNK        -0.4434 
     40 CA         27.4710    1.9849   -6.0173 C.3       6 UNK         0.0363 
     41 CB         26.6304    2.5150   -4.8455 C.3       6 UNK        -0.1936 
     42 C          27.3409    2.9208   -7.2335 C.2       6 UNK         0.5081 
     43 O          28.0843    3.8981   -7.3164 O.2       6 UNK        -0.5248 
     44 N          26.4198    2.6042   -8.1528 N.am      7 UNK        -0.4718 
     45 CA         26.2512    3.3027   -9.4257 C.3       7 UNK         0.0273 
     46 CB         24.7515    3.4217   -9.7445 C.3       7 UNK        -0.1935 
     47 C          26.9864    2.5735  -10.5599 C.2       7 UNK         0.5018 
     48 O          27.6022    3.2327  -11.3981 O.2       7 UNK        -0.5186 
     49 N          26.8905    1.2361  -10.5827 N.am      8 UNK        -0.4240 
     50 CA         27.4049    0.3865  -11.6587 C.3       8 UNK         0.0235 
     51 CB         26.7799   -1.0133  -11.5437 C.3       8 UNK        -0.2000 
     52 C          28.9388    0.2870  -11.7186 C.2       8 UNK         0.4941 
     53 O          29.4835    0.2333  -12.8225 O.2       8 UNK        -0.5273 
     54 N          29.6019    0.2339  -10.5559 N.am      9 UNK        -0.4262 
     55 CA         31.0483    0.0136  -10.4374 C.3       9 UNK         0.0264 
     56 CB         31.2989   -1.4543  -10.0519 C.3       9 UNK        -0.1955 
     57 C          31.7312    0.9585   -9.4353 C.2       9 UNK         0.5031 
     58 O          32.9327    1.1975   -9.5716 O.2       9 UNK        -0.5390 
     59 N          30.9798    1.4675   -8.4487 N.am      10 UNK        -0.4204 
     60 CA         31.3886    2.3225   -7.3284 C.3       10 UNK         0.0237 
     61 CB         32.0515    3.6361   -7.7912 C.3       10 UNK        -0.1985 
     62 C          32.2341    1.5706   -6.2895 C.2       10 UNK         0.4970 
     63 O          31.8026    1.4519   -5.1427 O.2       10 UNK        -0.4914 
     64 N          33.4018    1.0708   -6.7135 N.am      11 UNK        -0.4285 
     65 CA         34.3443    0.2515   -5.9281 C.3       11 UNK         0.1007 
     66 C          34.9469    0.9545   -4.6717 C.2       11 UNK         0.5703 
     67 N          34.9455    2.2805   -4.5966 N.am      11 UNK        -0.7361 
     68 O          35.4598    0.2985   -3.7677 O.2       11 UNK        -0.4986 
     69 C69        33.7835   -1.1704   -5.6303 C.3       12 UNK        -0.0947 
     70 S70        33.4674   -2.0963   -7.1693 S.3       12 UNK        -0.2240 
     71 C71        33.5210   -3.8183   -6.5887 C.3       12 UNK         0.0194 
     72 H72        28.5467   -0.8875    3.5086 H         1 UNK         0.0906 
     73 H73        30.2903   -0.8890    3.2308 H         1 UNK         0.0906 
     74 H74        29.3432   -2.3403    2.9004 H         1 UNK         0.0906 
     75 H75        29.0170   -2.6465    0.7027 H         1 UNK         0.3140 
     76 H76        29.4097   -0.5341   -1.2137 H         1 UNK         0.1085 
     77 H77        28.4762   -3.4110   -1.6749 H         1 UNK         0.0836 
     78 H78        29.0116   -2.3005   -2.9169 H         1 UNK         0.0836 
     79 H79        31.7921   -5.2479   -1.9765 H         1 UNK         0.0731 
     80 H80        30.0491   -5.2999   -2.0094 H         1 UNK         0.0731 
     81 H81        33.0319   -4.0380   -3.9054 H         1 UNK         0.1312 
     82 H82        31.1465   -4.4551   -7.7305 H         1 UNK         0.1406 
     83 H83        28.9236   -5.2495   -4.1473 H         1 UNK         0.1631 
     84 H84        28.8511   -4.9404   -7.9266 H         1 UNK         0.0717 
     85 H85        28.4527   -6.2488   -6.8384 H         1 UNK         0.0717 
     86 H86        27.5799   -2.1560   -5.2857 H         1 UNK         0.0934 
     87 H87        28.8686   -2.5128   -6.3971 H         1 UNK         0.0934 
     88 H88        27.4314   -1.9879   -8.3454 H         1 UNK         0.0739 
     89 H89        25.3075   -2.3648   -6.6513 H         1 UNK         0.3093 
     90 H90        22.9389    0.0453   -7.3666 H         1 UNK         0.0818 
     91 H91        21.4266   -1.7748   -8.1140 H         1 UNK         0.0819 
     92 H92        22.5530   -1.3707   -9.3973 H         1 UNK         0.0819 
     93 H93        22.8054   -2.8259   -8.4436 H         1 UNK         0.0819 
     94 H94        22.5924   -2.3569   -5.9684 H         1 UNK         0.3041 
     95 H95        22.5449   -1.9512   -3.4275 H         1 UNK         0.0784 
     96 H96        23.6508   -3.8871   -4.6317 H         1 UNK         0.0793 
     97 H97        25.2267   -3.3421   -4.0683 H         1 UNK         0.0793 
     98 H98        24.0295   -3.9347   -2.9236 H         1 UNK         0.0793 
     99 H99        25.0359   -0.5930   -2.8961 H         1 UNK         0.3024 
    100 H100       25.0083    0.4758   -0.7539 H         1 UNK         0.1171 
    101 H101       25.0606    0.2040    1.7038 H         1 UNK         0.0786 
    102 H102       23.4388   -0.0971    1.1031 H         1 UNK         0.0786 
    103 H103       24.4614   -1.4492    1.5702 H         1 UNK         0.0786 
    104 H104       26.6631   -1.5194    0.5276 H         1 UNK         0.2977 
    105 H105       26.2967    0.2403   -5.7733 H         1 UNK         0.3127 
    106 H106       28.5174    1.9837   -5.7084 H         1 UNK         0.0770 
    107 H107       25.5659    2.5203   -5.0837 H         1 UNK         0.0814 
    108 H108       26.9143    3.5369   -4.5908 H         1 UNK         0.0814 
    109 H109       26.7693    1.9079   -3.9509 H         1 UNK         0.0814 
    110 H110       25.8752    1.7585   -8.0258 H         1 UNK         0.2983 
    111 H111       26.6610    4.3132   -9.3581 H         1 UNK         0.0947 
    112 H112       24.5941    3.9416  -10.6905 H         1 UNK         0.0806 
    113 H113       24.2279    3.9870   -8.9735 H         1 UNK         0.0806 
    114 H114       24.2731    2.4446   -9.8252 H         1 UNK         0.0806 
    115 H115       26.3212    0.7783   -9.8741 H         1 UNK         0.3000 
    116 H116       27.0735    0.8209  -12.6045 H         1 UNK         0.0850 
    117 H117       25.6913   -0.9666  -11.5825 H         1 UNK         0.0810 
    118 H118       27.0595   -1.5053  -10.6127 H         1 UNK         0.0810 
    119 H119       27.1064   -1.6556  -12.3629 H         1 UNK         0.0810 
    120 H120       29.0723    0.2684   -9.6883 H         1 UNK         0.3040 
    121 H121       31.5317    0.1977  -11.3991 H         1 UNK         0.0766 
    122 H122       30.8785   -2.1365  -10.7907 H         1 UNK         0.0812 
    123 H123       30.8605   -1.6965   -9.0826 H         1 UNK         0.0812 
    124 H124       32.3676   -1.6637   -9.9908 H         1 UNK         0.0812 
    125 H125       30.0355    1.0963   -8.3518 H         1 UNK         0.3205 
    126 H126       30.4626    2.6020   -6.8276 H         1 UNK         0.0754 
    127 H127       33.0048    3.4710   -8.2929 H         1 UNK         0.0769 
    128 H128       32.2442    4.2910   -6.9406 H         1 UNK         0.0769 
    129 H129       31.4026    4.1811   -8.4770 H         1 UNK         0.0769 
    130 H130       33.6231    1.1872   -7.6974 H         1 UNK         0.2981 
    131 H131       35.2080    0.1179   -6.5802 H         1 UNK         0.0541 
    132 H132       35.3475    2.7296   -3.7891 H         1 UNK         0.3459 
    133 H133       34.5418    2.8330   -5.3354 H         1 UNK         0.3459 
    134 H134       32.8622   -1.1184   -5.0479 H         1 UNK         0.0612 
    135 H135       34.4930   -1.7467   -5.0346 H         1 UNK         0.0612 
    136 H136       33.6801   -4.4702   -7.4488 H         1 UNK         0.0624 
    137 H137       34.3810   -3.9652   -5.9337 H         1 UNK         0.0624 
@<TRIPOS>BOND
     1    1    2 1    
     2    1   72 1    
     3    1   73 1    
     4    1   74 1    
     5    2    3 2    
     6    2    4 am   BACKBONE|DICT|INTERRES
     7    4    5 1    
     8    4   75 1    
     9    5    6 1    
    10    5   35 1    
    11    5   76 1    
    12    6    7 1    
    13    6   77 1    
    14    6   78 1    
    15    7    8 1    
    16    8    9 1    
    17    8   79 1    
    18    8   80 1    
    19    9   10 ar   
    20    9   14 ar   
    21   10   11 ar   
    22   10   81 1    
    23   11   12 ar   
    24   11   71 1    
    25   12   13 ar   
    26   12   82 1    
    27   13   14 ar   
    28   13   15 1    
    29   14   83 1    
    30   15   16 1    
    31   15   84 1    
    32   15   85 1    
    33   16   17 1    
    34   17   18 1    
    35   17   86 1    
    36   17   87 1    
    37   18   19 1    
    38   18   37 1    
    39   18   88 1    
    40   19   20 am   BACKBONE|DICT|INTERRES
    41   19   89 1    
    42   20   21 2    
    43   20   22 1    
    44   22   23 1    
    45   22   24 1    
    46   22   90 1    
    47   23   91 1    
    48   23   92 1    
    49   23   93 1    
    50   24   25 am   BACKBONE|DICT|INTERRES
    51   24   94 1    
    52   25   26 2    
    53   25   27 1    
    54   27   28 1    
    55   27   29 1    
    56   27   95 1    
    57   28   96 1    
    58   28   97 1    
    59   28   98 1    
    60   29   30 am   BACKBONE|DICT|INTERRES
    61   29   99 1    
    62   30   31 2    
    63   30   32 1    
    64   32   33 1    
    65   32   34 1    
    66   32  100 1    
    67   33  101 1    
    68   33  102 1    
    69   33  103 1    
    70   34   35 am   BACKBONE|DICT|INTERRES
    71   34  104 1    
    72   35   36 2    
    73   37   38 2    
    74   37   39 am   BACKBONE|DICT|INTERRES
    75   39   40 1    
    76   39  105 1    
    77   40   41 1    
    78   40   42 1    
    79   40  106 1    
    80   41  107 1    
    81   41  108 1    
    82   41  109 1    
    83   42   43 2    
    84   42   44 am   BACKBONE|DICT|INTERRES
    85   44   45 1    
    86   44  110 1    
    87   45   46 1    
    88   45   47 1    
    89   45  111 1    
    90   46  112 1    
    91   46  113 1    
    92   46  114 1    
    93   47   48 2    
    94   47   49 am   BACKBONE|DICT|INTERRES
    95   49   50 1    
    96   49  115 1    
    97   50   51 1    
    98   50   52 1    
    99   50  116 1    
   100   51  117 1    
   101   51  118 1    
   102   51  119 1    
   103   52   53 2    
   104   52   54 am   BACKBONE|DICT|INTERRES
   105   54   55 1    
   106   54  120 1    
   107   55   56 1    
   108   55   57 1    
   109   55  121 1    
   110   56  122 1    
   111   56  123 1    
   112   56  124 1    
   113   57   58 2    
   114   57   59 am   BACKBONE|DICT|INTERRES
   115   59   60 1    
   116   59  125 1    
   117   60   61 1    
   118   60   62 1    
   119   60  126 1    
   120   61  127 1    
   121   61  128 1    
   122   61  129 1    
   123   62   63 2    
   124   62   64 am   BACKBONE|DICT|INTERRES
   125   64   65 1    
   126   64  130 1    
   127   65   66 1    
   128   65   69 1    
   129   65  131 1    
   130   66   67 am   BACKBONE|DICT|INTERRES
   131   66   68 2    
   132   67  132 1    
   133   67  133 1    
   134   69   70 1    
   135   69  134 1    
   136   69  135 1    
   137   70   71 1    
   138   71  136 1    
   139   71  137 1    
@<TRIPOS>SUBSTRUCTURE
     1 UNK         1 GROUP             0       ****    0 ROOT    
