@<TRIPOS>MOLECULE
3R137
137   139    1
SMALL
USER_CHARGES


@<TRIPOS>ATOM
      1 CA         29.0153   -5.7708    0.2200 C.3       0 UNK        -0.2020 
      2 C          27.9780   -4.7791    0.7248 C.2       0 UNK         0.4855 
      3 O          27.1111   -5.1465    1.5176 O.2       0 UNK        -0.5197 
      4 N          28.0589   -3.5229    0.2674 N.am      1 UNK        -0.4892 
      5 CA         27.1378   -2.4322    0.6180 C.3       1 UNK         0.0835 
      6 C6         27.7654   -1.0399    0.3366 C.3       12 UNK        -0.0855 
      7 S7         28.1841   -0.7391   -1.4181 S.3       12 UNK        -0.2931 
      8 C8         29.9315   -1.2625   -1.4812 C.3       12 UNK         0.0378 
      9 C9         30.2728   -1.9441   -2.8009 C.ar      12 UNK        -0.0802 
     10 C10        31.4119   -1.5651   -3.5159 C.ar      12 UNK        -0.0944 
     11 C11        31.7306   -2.1791   -4.7329 C.ar      12 UNK        -0.0787 
     12 C12        30.8980   -3.1906   -5.2288 C.ar      12 UNK        -0.0862 
     13 C13        29.7679   -3.5969   -4.5107 C.ar      12 UNK        -0.0733 
     14 C14        29.4681   -2.9738   -3.2976 C.ar      12 UNK        -0.0832 
     15 C15        28.8903   -4.7394   -5.0091 C.3       12 UNK         0.0240 
     16 S16        27.7438   -4.2497   -6.3382 S.3       12 UNK        -0.2522 
     17 C17        26.6955   -2.9769   -5.5462 C.3       12 UNK        -0.0967 
     18 CA         26.5697   -1.6913   -6.3959 C.3       5 UNK         0.0660 
     19 N          25.5232   -0.7939   -5.8926 N.am      5 UNK        -0.4015 
     20 C          25.0448    0.2547   -6.5824 C.2       4 UNK         0.4946 
     21 O          25.4764    0.5776   -7.6903 O.2       4 UNK        -0.5353 
     22 CA         23.9433    1.1239   -5.9412 C.3       4 UNK         0.0277 
     23 CB         22.9024    1.5951   -6.9794 C.3       4 UNK        -0.1981 
     24 N          23.2844    0.5289   -4.7723 N.am      4 UNK        -0.4209 
     25 C          22.5415   -0.5864   -4.7243 C.2       3 UNK         0.4942 
     26 O          22.2907   -1.3077   -5.6915 O.2       3 UNK        -0.5208 
     27 CA         22.0159   -0.9707   -3.3305 C.3       3 UNK         0.0250 
     28 CB         20.4962   -1.2097   -3.3621 C.3       3 UNK        -0.1990 
     29 N          22.6770   -2.1482   -2.7577 N.am      3 UNK        -0.4232 
     30 C          23.9978   -2.3540   -2.6477 C.2       2 UNK         0.4993 
     31 O          24.8637   -1.6173   -3.1295 O.2       2 UNK        -0.5286 
     32 CA         24.4185   -3.6131   -1.8697 C.3       2 UNK         0.0209 
     33 CB         24.6389   -4.8042   -2.8164 C.3       2 UNK        -0.1931 
     34 N          25.6379   -3.3894   -1.0927 N.am      2 UNK        -0.4546 
     35 C          25.7385   -2.5837   -0.0247 C.2       1 UNK         0.5154 
     36 O          24.7801   -1.9857    0.4689 O.2       1 UNK        -0.5181 
     37 C          27.9130   -0.9591   -6.5846 C.2       5 UNK         0.5014 
     38 O          28.5665   -1.1623   -7.6077 O.2       5 UNK        -0.5248 
     39 N          28.2637   -0.0672   -5.6457 N.am      6 UNK        -0.4434 
     40 CA         29.4555    0.7794   -5.7354 C.3       6 UNK         0.0363 
     41 CB         29.6364    1.5710   -4.4315 C.3       6 UNK        -0.1936 
     42 C          29.4338    1.7282   -6.9458 C.2       6 UNK         0.5081 
     43 O          30.4615    1.9024   -7.6005 O.2       6 UNK        -0.5248 
     44 N          28.2548    2.2940   -7.2412 N.am      7 UNK        -0.4718 
     45 CA         28.0171    3.1555   -8.4001 C.3       7 UNK         0.0273 
     46 CB         26.6840    3.9018   -8.2285 C.3       7 UNK        -0.1935 
     47 C          28.0438    2.3730   -9.7224 C.2       7 UNK         0.5018 
     48 O          28.6241    2.8588  -10.6931 O.2       7 UNK        -0.5186 
     49 N          27.4419    1.1743   -9.7304 N.am      8 UNK        -0.4240 
     50 CA         27.4364    0.2513  -10.8683 C.3       8 UNK         0.0235 
     51 CB         26.4586   -0.9031  -10.5958 C.3       8 UNK        -0.2000 
     52 C          28.8377   -0.2859  -11.2049 C.2       8 UNK         0.4941 
     53 O          29.2001   -0.3286  -12.3813 O.2       8 UNK        -0.5273 
     54 N          29.6041   -0.6662  -10.1727 N.am      9 UNK        -0.4262 
     55 CA         30.9971   -1.1037  -10.2885 C.3       9 UNK         0.0264 
     56 CB         31.4266   -1.7817   -8.9768 C.3       9 UNK        -0.1955 
     57 C          31.9638    0.0428  -10.6315 C.2       9 UNK         0.5031 
     58 O          32.9882   -0.2119  -11.2664 O.2       9 UNK        -0.5390 
     59 N          31.6329    1.2655  -10.1869 N.am      10 UNK        -0.4204 
     60 CA         32.4271    2.4975  -10.2726 C.3       10 UNK         0.0237 
     61 CB         32.6055    2.9463  -11.7386 C.3       10 UNK        -0.1985 
     62 C          33.7563    2.3957   -9.4971 C.2       10 UNK         0.4970 
     63 O          34.7661    2.9613   -9.9217 O.2       10 UNK        -0.4914 
     64 N          33.7299    1.6586   -8.3809 N.am      11 UNK        -0.4285 
     65 CA         34.8658    1.4350   -7.4804 C.3       11 UNK         0.1007 
     66 C          35.1794    2.6599   -6.5750 C.2       11 UNK         0.5703 
     67 N          36.3659    2.7002   -5.9829 N.am      11 UNK        -0.7361 
     68 O          34.3653    3.5637   -6.3910 O.2       11 UNK        -0.4986 
     69 C69        34.6943    0.1157   -6.6786 C.3       12 UNK        -0.0947 
     70 S70        33.1339    0.0164   -5.7395 S.3       12 UNK        -0.2240 
     71 C71        32.9956   -1.7831   -5.4886 C.3       12 UNK         0.0194 
     72 H72        29.7160   -5.3120   -0.4777 H         1 UNK         0.0906 
     73 H73        29.5856   -6.1746    1.0561 H         1 UNK         0.0906 
     74 H74        28.5247   -6.6000   -0.2892 H         1 UNK         0.0906 
     75 H75        28.8001   -3.2717   -0.3689 H         1 UNK         0.3140 
     76 H76        26.9700   -2.4910    1.6962 H         1 UNK         0.1085 
     77 H77        27.0822   -0.2513    0.6583 H         1 UNK         0.0836 
     78 H78        28.6601   -0.9064    0.9470 H         1 UNK         0.0836 
     79 H79        30.1620   -1.9498   -0.6674 H         1 UNK         0.0731 
     80 H80        30.5583   -0.3832   -1.3240 H         1 UNK         0.0731 
     81 H81        32.0545   -0.7867   -3.1278 H         1 UNK         0.1312 
     82 H82        31.1358   -3.6768   -6.1650 H         1 UNK         0.1406 
     83 H83        28.5964   -3.2864   -2.7414 H         1 UNK         0.1631 
     84 H84        28.3144   -5.1693   -4.1879 H         1 UNK         0.0717 
     85 H85        29.5275   -5.5434   -5.3802 H         1 UNK         0.0717 
     86 H86        25.7051   -3.4152   -5.4182 H         1 UNK         0.0934 
     87 H87        27.0488   -2.7424   -4.5425 H         1 UNK         0.0934 
     88 H88        26.2450   -2.0017   -7.3915 H         1 UNK         0.0739 
     89 H89        25.1554   -0.9947   -4.9657 H         1 UNK         0.3093 
     90 H90        24.4557    2.0129   -5.5708 H         1 UNK         0.0818 
     91 H91        22.1461    2.2334   -6.5230 H         1 UNK         0.0819 
     92 H92        23.3737    2.1743   -7.7746 H         1 UNK         0.0819 
     93 H93        22.3930    0.7547   -7.4517 H         1 UNK         0.0819 
     94 H94        23.4552    1.0093   -3.8989 H         1 UNK         0.3041 
     95 H95        22.2039   -0.1393   -2.6479 H         1 UNK         0.0784 
     96 H96        19.9740   -0.3483   -3.7810 H         1 UNK         0.0793 
     97 H97        20.2362   -2.0757   -3.9725 H         1 UNK         0.0793 
     98 H98        20.0967   -1.3721   -2.3607 H         1 UNK         0.0793 
     99 H99        22.0574   -2.8404   -2.3621 H         1 UNK         0.3024 
    100 H100       23.6202   -3.8691   -1.1691 H         1 UNK         0.1171 
    101 H101       24.7878   -5.7278   -2.2566 H         1 UNK         0.0786 
    102 H102       23.7770   -4.9577   -3.4674 H         1 UNK         0.0786 
    103 H103       25.5108   -4.6610   -3.4536 H         1 UNK         0.0786 
    104 H104       26.4805   -3.8282   -1.4281 H         1 UNK         0.2977 
    105 H105       27.6830    0.0357   -4.8263 H         1 UNK         0.3127 
    106 H106       30.3081    0.1123   -5.8577 H         1 UNK         0.0770 
    107 H107       28.8000    2.2453   -4.2449 H         1 UNK         0.0814 
    108 H108       30.5439    2.1753   -4.4697 H         1 UNK         0.0814 
    109 H109       29.7299    0.9068   -3.5736 H         1 UNK         0.0814 
    110 H110       27.4530    2.0567   -6.6765 H         1 UNK         0.2983 
    111 H111       28.8186    3.8970   -8.4396 H         1 UNK         0.0947 
    112 H112       26.5049    4.5738   -9.0689 H         1 UNK         0.0806 
    113 H113       26.6829    4.5096   -7.3236 H         1 UNK         0.0806 
    114 H114       25.8370    3.2173   -8.1748 H         1 UNK         0.0806 
    115 H115       26.9299    0.8815   -8.9012 H         1 UNK         0.3000 
    116 H116       27.0754    0.8034  -11.7386 H         1 UNK         0.0850 
    117 H117       26.4023   -1.5768  -11.4517 H         1 UNK         0.0810 
    118 H118       25.4509   -0.5329  -10.4055 H         1 UNK         0.0810 
    119 H119       26.7645   -1.4957   -9.7334 H         1 UNK         0.0810 
    120 H120       29.1996   -0.6790   -9.2359 H         1 UNK         0.3040 
    121 H121       31.0574   -1.8411  -11.0916 H         1 UNK         0.0766 
    122 H122       31.3564   -1.0977   -8.1298 H         1 UNK         0.0812 
    123 H123       32.4590   -2.1293   -9.0335 H         1 UNK         0.0812 
    124 H124       30.8024   -2.6475   -8.7548 H         1 UNK         0.0812 
    125 H125       30.8037    1.3420   -9.6078 H         1 UNK         0.3205 
    126 H126       31.8416    3.2650   -9.7640 H         1 UNK         0.0754 
    127 H127       33.0688    3.9322  -11.7918 H         1 UNK         0.0769 
    128 H128       31.6447    3.0124  -12.2497 H         1 UNK         0.0769 
    129 H129       33.2387    2.2590  -12.3002 H         1 UNK         0.0769 
    130 H130       32.8409    1.2998   -8.0603 H         1 UNK         0.2981 
    131 H131       35.7451    1.3029   -8.1142 H         1 UNK         0.0541 
    132 H132       37.0438    1.9668   -6.1202 H         1 UNK         0.3459 
    133 H133       36.5884    3.4822   -5.3871 H         1 UNK         0.3459 
    134 H134       35.5278   -0.0383   -5.9913 H         1 UNK         0.0612 
    135 H135       34.7260   -0.7244   -7.3742 H         1 UNK         0.0612 
    136 H136       33.8640   -2.1315   -4.9283 H         1 UNK         0.0624 
    137 H137       33.0308   -2.2777   -6.4600 H         1 UNK         0.0624 
@<TRIPOS>BOND
     1    1    2 1    
     2    1   72 1    
     3    1   73 1    
     4    1   74 1    
     5    2    3 2    
     6    2    4 am   BACKBONE|DICT|INTERRES
     7    4    5 1    
     8    4   75 1    
     9    5    6 1    
    10    5   35 1    
    11    5   76 1    
    12    6    7 1    
    13    6   77 1    
    14    6   78 1    
    15    7    8 1    
    16    8    9 1    
    17    8   79 1    
    18    8   80 1    
    19    9   10 ar   
    20    9   14 ar   
    21   10   11 ar   
    22   10   81 1    
    23   11   12 ar   
    24   11   71 1    
    25   12   13 ar   
    26   12   82 1    
    27   13   14 ar   
    28   13   15 1    
    29   14   83 1    
    30   15   16 1    
    31   15   84 1    
    32   15   85 1    
    33   16   17 1    
    34   17   18 1    
    35   17   86 1    
    36   17   87 1    
    37   18   19 1    
    38   18   37 1    
    39   18   88 1    
    40   19   20 am   BACKBONE|DICT|INTERRES
    41   19   89 1    
    42   20   21 2    
    43   20   22 1    
    44   22   23 1    
    45   22   24 1    
    46   22   90 1    
    47   23   91 1    
    48   23   92 1    
    49   23   93 1    
    50   24   25 am   BACKBONE|DICT|INTERRES
    51   24   94 1    
    52   25   26 2    
    53   25   27 1    
    54   27   28 1    
    55   27   29 1    
    56   27   95 1    
    57   28   96 1    
    58   28   97 1    
    59   28   98 1    
    60   29   30 am   BACKBONE|DICT|INTERRES
    61   29   99 1    
    62   30   31 2    
    63   30   32 1    
    64   32   33 1    
    65   32   34 1    
    66   32  100 1    
    67   33  101 1    
    68   33  102 1    
    69   33  103 1    
    70   34   35 am   BACKBONE|DICT|INTERRES
    71   34  104 1    
    72   35   36 2    
    73   37   38 2    
    74   37   39 am   BACKBONE|DICT|INTERRES
    75   39   40 1    
    76   39  105 1    
    77   40   41 1    
    78   40   42 1    
    79   40  106 1    
    80   41  107 1    
    81   41  108 1    
    82   41  109 1    
    83   42   43 2    
    84   42   44 am   BACKBONE|DICT|INTERRES
    85   44   45 1    
    86   44  110 1    
    87   45   46 1    
    88   45   47 1    
    89   45  111 1    
    90   46  112 1    
    91   46  113 1    
    92   46  114 1    
    93   47   48 2    
    94   47   49 am   BACKBONE|DICT|INTERRES
    95   49   50 1    
    96   49  115 1    
    97   50   51 1    
    98   50   52 1    
    99   50  116 1    
   100   51  117 1    
   101   51  118 1    
   102   51  119 1    
   103   52   53 2    
   104   52   54 am   BACKBONE|DICT|INTERRES
   105   54   55 1    
   106   54  120 1    
   107   55   56 1    
   108   55   57 1    
   109   55  121 1    
   110   56  122 1    
   111   56  123 1    
   112   56  124 1    
   113   57   58 2    
   114   57   59 am   BACKBONE|DICT|INTERRES
   115   59   60 1    
   116   59  125 1    
   117   60   61 1    
   118   60   62 1    
   119   60  126 1    
   120   61  127 1    
   121   61  128 1    
   122   61  129 1    
   123   62   63 2    
   124   62   64 am   BACKBONE|DICT|INTERRES
   125   64   65 1    
   126   64  130 1    
   127   65   66 1    
   128   65   69 1    
   129   65  131 1    
   130   66   67 am   BACKBONE|DICT|INTERRES
   131   66   68 2    
   132   67  132 1    
   133   67  133 1    
   134   69   70 1    
   135   69  134 1    
   136   69  135 1    
   137   70   71 1    
   138   71  136 1    
   139   71  137 1    
@<TRIPOS>SUBSTRUCTURE
     1 UNK         1 GROUP             0       ****    0 ROOT    
