@<TRIPOS>MOLECULE
3R137
137   139    1
SMALL
USER_CHARGES


@<TRIPOS>ATOM
      1 CA         25.4311   -4.5142    2.0608 C.3       0 UNK        -0.2020 
      2 C          26.2214   -3.4004    1.3909 C.2       0 UNK         0.4855 
      3 O          26.7358   -2.5165    2.0762 O.2       0 UNK        -0.5197 
      4 N          26.3190   -3.4324    0.0550 N.am      1 UNK        -0.4892 
      5 CA         27.0652   -2.4573   -0.7574 C.3       1 UNK         0.0835 
      6 C6         27.4512   -3.0271   -2.1471 C.3       12 UNK        -0.0855 
      7 S7         28.3251   -4.6242   -2.0242 S.3       12 UNK        -0.2931 
      8 C8         30.0786   -4.1115   -2.0307 C.3       12 UNK         0.0378 
      9 C9         30.6751   -3.9495   -3.4272 C.ar      12 UNK        -0.0802 
     10 C10        31.5899   -2.9216   -3.6801 C.ar      12 UNK        -0.0944 
     11 C11        32.1986   -2.7929   -4.9338 C.ar      12 UNK        -0.0787 
     12 C12        31.8766   -3.7087   -5.9442 C.ar      12 UNK        -0.0862 
     13 C13        30.9575   -4.7341   -5.7111 C.ar      12 UNK        -0.0733 
     14 C14        30.3755   -4.8587   -4.4472 C.ar      12 UNK        -0.0832 
     15 C15        30.6087   -5.7241   -6.8151 C.3       12 UNK         0.0240 
     16 S16        29.5286   -5.0025   -8.0954 S.3       12 UNK        -0.2522 
     17 C17        28.0387   -4.5358   -7.1424 C.3       12 UNK        -0.0967 
     18 CA         27.4803   -3.1286   -7.4760 C.3       5 UNK         0.0660 
     19 N          26.2285   -2.8801   -6.7470 N.am      5 UNK        -0.4015 
     20 C          25.4709   -1.7762   -6.8319 C.2       4 UNK         0.4946 
     21 O          25.7367   -0.8251   -7.5702 O.2       4 UNK        -0.5353 
     22 CA         24.2513   -1.6810   -5.8992 C.3       4 UNK         0.0277 
     23 CB         23.9401   -2.9764   -5.1196 C.3       4 UNK        -0.1981 
     24 N          24.4911   -0.5988   -4.9454 N.am      4 UNK        -0.4209 
     25 C          24.0172    0.6484   -5.0557 C.2       3 UNK         0.4942 
     26 O          23.2250    1.0092   -5.9281 O.2       3 UNK        -0.5208 
     27 CA         24.5386    1.6626   -4.0165 C.3       3 UNK         0.0250 
     28 CB         23.7106    2.9652   -3.9774 C.3       3 UNK        -0.1990 
     29 N          24.6913    1.1013   -2.6675 N.am      3 UNK        -0.4232 
     30 C          23.7347    0.5786   -1.8874 C.2       2 UNK         0.4993 
     31 O          22.5591    0.4421   -2.2307 O.2       2 UNK        -0.5286 
     32 CA         24.1853    0.1238   -0.4867 C.3       2 UNK         0.0209 
     33 CB         22.9967   -0.1598    0.4519 C.3       2 UNK        -0.1931 
     34 N          25.0372   -1.0665   -0.5322 N.am      2 UNK        -0.4546 
     35 C          26.3264   -1.1068   -0.8994 C.2       1 UNK         0.5154 
     36 O          26.9331   -0.1275   -1.3368 O.2       1 UNK        -0.5181 
     37 C          28.5165   -1.9947   -7.2829 C.2       5 UNK         0.5014 
     38 O          29.1558   -1.5912   -8.2548 O.2       5 UNK        -0.5248 
     39 N          28.5916   -1.4415   -6.0620 N.am      6 UNK        -0.4434 
     40 CA         29.4206   -0.2845   -5.7140 C.3       6 UNK         0.0363 
     41 CB         29.2968    0.0082   -4.2107 C.3       6 UNK        -0.1936 
     42 C          29.1139    0.9854   -6.5282 C.2       6 UNK         0.5081 
     43 O          30.0398    1.7409   -6.8224 O.2       6 UNK        -0.5248 
     44 N          27.8408    1.2010   -6.8881 N.am      7 UNK        -0.4718 
     45 CA         27.4245    2.3130   -7.7446 C.3       7 UNK         0.0273 
     46 CB         25.9724    2.7079   -7.4388 C.3       7 UNK        -0.1935 
     47 C          27.5876    1.9648   -9.2289 C.2       7 UNK         0.5018 
     48 O          28.0356    2.8170   -9.9948 O.2       7 UNK        -0.5186 
     49 N          27.2460    0.7228   -9.6049 N.am      8 UNK        -0.4240 
     50 CA         27.3360    0.2117  -10.9766 C.3       8 UNK         0.0235 
     51 CB         26.6947   -1.1824  -11.0556 C.3       8 UNK        -0.2000 
     52 C          28.7750    0.1817  -11.5199 C.2       8 UNK         0.4941 
     53 O          29.0023    0.6153  -12.6500 O.2       8 UNK        -0.5273 
     54 N          29.7194   -0.3007  -10.7010 N.am      9 UNK        -0.4262 
     55 CA         31.1532   -0.3128  -11.0057 C.3       9 UNK         0.0264 
     56 CB         31.8005   -1.5134  -10.2965 C.3       9 UNK        -0.1955 
     57 C          31.8614    1.0028  -10.6259 C.2       9 UNK         0.5031 
     58 O          33.0271    1.1738  -10.9848 O.2       9 UNK        -0.5390 
     59 N          31.1616    1.8964   -9.9086 N.am      10 UNK        -0.4204 
     60 CA         31.5976    3.2133   -9.4193 C.3       10 UNK         0.0237 
     61 CB         31.8851    4.1690  -10.5967 C.3       10 UNK        -0.1985 
     62 C          32.7524    3.1687   -8.3951 C.2       10 UNK         0.4970 
     63 O          33.4184    4.1841   -8.1844 O.2       10 UNK        -0.4914 
     64 N          32.9600    2.0074   -7.7669 N.am      11 UNK        -0.4285 
     65 CA         33.9410    1.7672   -6.7006 C.3       11 UNK         0.1007 
     66 C          33.4606    2.1832   -5.2810 C.2       11 UNK         0.5703 
     67 N          32.1830    2.4707   -5.0638 N.am      11 UNK        -0.7361 
     68 O          34.2713    2.2650   -4.3613 O.2       11 UNK        -0.4986 
     69 C69        34.4710    0.3086   -6.7395 C.3       12 UNK        -0.0947 
     70 S70        33.1515   -0.9492   -6.8189 S.3       12 UNK        -0.2240 
     71 C71        33.2330   -1.6907   -5.1579 C.3       12 UNK         0.0194 
     72 H72        26.0679   -5.0584    2.7578 H         1 UNK         0.0906 
     73 H73        24.5935   -4.0969    2.6192 H         1 UNK         0.0906 
     74 H74        25.0353   -5.2266    1.3372 H         1 UNK         0.0906 
     75 H75        25.9071   -4.2004   -0.4572 H         1 UNK         0.3140 
     76 H76        27.9948   -2.2325   -0.2292 H         1 UNK         0.1085 
     77 H77        28.0767   -2.3227   -2.6963 H         1 UNK         0.0836 
     78 H78        26.5594   -3.1822   -2.7562 H         1 UNK         0.0836 
     79 H79        30.1847   -3.1920   -1.4528 H         1 UNK         0.0731 
     80 H80        30.6580   -4.8708   -1.5041 H         1 UNK         0.0731 
     81 H81        31.8464   -2.2292   -2.8898 H         1 UNK         0.1312 
     82 H82        32.3399   -3.6292   -6.9179 H         1 UNK         0.1406 
     83 H83        29.6871   -5.6705   -4.2563 H         1 UNK         0.1631 
     84 H84        30.1250   -6.6107   -6.4021 H         1 UNK         0.0717 
     85 H85        31.5277   -6.0732   -7.2880 H         1 UNK         0.0717 
     86 H86        27.2781   -5.2890   -7.3543 H         1 UNK         0.0934 
     87 H87        28.2329   -4.6135   -6.0735 H         1 UNK         0.0934 
     88 H88        27.2166   -3.1305   -8.5343 H         1 UNK         0.0739 
     89 H89        25.9247   -3.6127   -6.1229 H         1 UNK         0.3093 
     90 H90        23.3879   -1.4516   -6.5273 H         1 UNK         0.0818 
     91 H91        24.7474   -3.2668   -4.4470 H         1 UNK         0.0819 
     92 H92        23.0436   -2.8515   -4.5114 H         1 UNK         0.0819 
     93 H93        23.7449   -3.8099   -5.7961 H         1 UNK         0.0819 
     94 H94        25.1319   -0.7917   -4.1907 H         1 UNK         0.3041 
     95 H95        25.5461    1.9267   -4.3403 H         1 UNK         0.0784 
     96 H96        23.7013    3.4542   -4.9523 H         1 UNK         0.0793 
     97 H97        22.6731    2.7762   -3.6997 H         1 UNK         0.0793 
     98 H98        24.1247    3.6776   -3.2640 H         1 UNK         0.0793 
     99 H99        25.6375    1.0825   -2.2970 H         1 UNK         0.3024 
    100 H100       24.7599    0.9446   -0.0505 H         1 UNK         0.1171 
    101 H101       22.3884   -0.9925    0.0963 H         1 UNK         0.0786 
    102 H102       22.3442    0.7110    0.5299 H         1 UNK         0.0786 
    103 H103       23.3360   -0.3988    1.4601 H         1 UNK         0.0786 
    104 H104       24.6218   -1.9287   -0.2105 H         1 UNK         0.2977 
    105 H105       28.0359   -1.8407   -5.3225 H         1 UNK         0.3127 
    106 H106       30.4550   -0.5563   -5.9223 H         1 UNK         0.0770 
    107 H107       29.8994    0.8734   -3.9312 H         1 UNK         0.0814 
    108 H108       29.6521   -0.8290   -3.6123 H         1 UNK         0.0814 
    109 H109       28.2677    0.2218   -3.9197 H         1 UNK         0.0814 
    110 H110       27.1451    0.4911   -6.6940 H         1 UNK         0.2983 
    111 H111       28.0533    3.1825   -7.5378 H         1 UNK         0.0947 
    112 H112       25.6463    3.5226   -8.0868 H         1 UNK         0.0806 
    113 H113       25.8656    3.0558   -6.4126 H         1 UNK         0.0806 
    114 H114       25.2833    1.8771   -7.5926 H         1 UNK         0.0806 
    115 H115       26.8530    0.0992   -8.9051 H         1 UNK         0.3000 
    116 H116       26.7574    0.8865  -11.6112 H         1 UNK         0.0850 
    117 H117       26.6554   -1.5331  -12.0878 H         1 UNK         0.0810 
    118 H118       25.6731   -1.1750  -10.6749 H         1 UNK         0.0810 
    119 H119       27.2615   -1.9180  -10.4860 H         1 UNK         0.0810 
    120 H120       29.4447   -0.6876   -9.7968 H         1 UNK         0.3040 
    121 H121       31.2906   -0.4488  -12.0805 H         1 UNK         0.0766 
    122 H122       32.8760   -1.5488  -10.4754 H         1 UNK         0.0812 
    123 H123       31.3805   -2.4548  -10.6509 H         1 UNK         0.0812 
    124 H124       31.6484   -1.4715   -9.2190 H         1 UNK         0.0812 
    125 H125       30.2091    1.6517   -9.6754 H         1 UNK         0.3205 
    126 H126       30.7429    3.6178   -8.8749 H         1 UNK         0.0754 
    127 H127       32.0547    5.1872  -10.2446 H         1 UNK         0.0769 
    128 H128       31.0446    4.2047  -11.2900 H         1 UNK         0.0769 
    129 H129       32.7707    3.8672  -11.1565 H         1 UNK         0.0769 
    130 H130       32.3336    1.2397   -7.9594 H         1 UNK         0.2981 
    131 H131       34.8013    2.4083   -6.9018 H         1 UNK         0.0541 
    132 H132       31.4932    2.3534   -5.8010 H         1 UNK         0.3459 
    133 H133       31.8940    2.7572   -4.1432 H         1 UNK         0.3459 
    134 H134       35.1368    0.1044   -5.8988 H         1 UNK         0.0612 
    135 H135       35.0847    0.1796   -7.6321 H         1 UNK         0.0612 
    136 H136       33.1030   -0.8953   -4.4222 H         1 UNK         0.0624 
    137 H137       34.2283   -2.1083   -5.0019 H         1 UNK         0.0624 
@<TRIPOS>BOND
     1    1    2 1    
     2    1   72 1    
     3    1   73 1    
     4    1   74 1    
     5    2    3 2    
     6    2    4 am   BACKBONE|DICT|INTERRES
     7    4    5 1    
     8    4   75 1    
     9    5    6 1    
    10    5   35 1    
    11    5   76 1    
    12    6    7 1    
    13    6   77 1    
    14    6   78 1    
    15    7    8 1    
    16    8    9 1    
    17    8   79 1    
    18    8   80 1    
    19    9   10 ar   
    20    9   14 ar   
    21   10   11 ar   
    22   10   81 1    
    23   11   12 ar   
    24   11   71 1    
    25   12   13 ar   
    26   12   82 1    
    27   13   14 ar   
    28   13   15 1    
    29   14   83 1    
    30   15   16 1    
    31   15   84 1    
    32   15   85 1    
    33   16   17 1    
    34   17   18 1    
    35   17   86 1    
    36   17   87 1    
    37   18   19 1    
    38   18   37 1    
    39   18   88 1    
    40   19   20 am   BACKBONE|DICT|INTERRES
    41   19   89 1    
    42   20   21 2    
    43   20   22 1    
    44   22   23 1    
    45   22   24 1    
    46   22   90 1    
    47   23   91 1    
    48   23   92 1    
    49   23   93 1    
    50   24   25 am   BACKBONE|DICT|INTERRES
    51   24   94 1    
    52   25   26 2    
    53   25   27 1    
    54   27   28 1    
    55   27   29 1    
    56   27   95 1    
    57   28   96 1    
    58   28   97 1    
    59   28   98 1    
    60   29   30 am   BACKBONE|DICT|INTERRES
    61   29   99 1    
    62   30   31 2    
    63   30   32 1    
    64   32   33 1    
    65   32   34 1    
    66   32  100 1    
    67   33  101 1    
    68   33  102 1    
    69   33  103 1    
    70   34   35 am   BACKBONE|DICT|INTERRES
    71   34  104 1    
    72   35   36 2    
    73   37   38 2    
    74   37   39 am   BACKBONE|DICT|INTERRES
    75   39   40 1    
    76   39  105 1    
    77   40   41 1    
    78   40   42 1    
    79   40  106 1    
    80   41  107 1    
    81   41  108 1    
    82   41  109 1    
    83   42   43 2    
    84   42   44 am   BACKBONE|DICT|INTERRES
    85   44   45 1    
    86   44  110 1    
    87   45   46 1    
    88   45   47 1    
    89   45  111 1    
    90   46  112 1    
    91   46  113 1    
    92   46  114 1    
    93   47   48 2    
    94   47   49 am   BACKBONE|DICT|INTERRES
    95   49   50 1    
    96   49  115 1    
    97   50   51 1    
    98   50   52 1    
    99   50  116 1    
   100   51  117 1    
   101   51  118 1    
   102   51  119 1    
   103   52   53 2    
   104   52   54 am   BACKBONE|DICT|INTERRES
   105   54   55 1    
   106   54  120 1    
   107   55   56 1    
   108   55   57 1    
   109   55  121 1    
   110   56  122 1    
   111   56  123 1    
   112   56  124 1    
   113   57   58 2    
   114   57   59 am   BACKBONE|DICT|INTERRES
   115   59   60 1    
   116   59  125 1    
   117   60   61 1    
   118   60   62 1    
   119   60  126 1    
   120   61  127 1    
   121   61  128 1    
   122   61  129 1    
   123   62   63 2    
   124   62   64 am   BACKBONE|DICT|INTERRES
   125   64   65 1    
   126   64  130 1    
   127   65   66 1    
   128   65   69 1    
   129   65  131 1    
   130   66   67 am   BACKBONE|DICT|INTERRES
   131   66   68 2    
   132   67  132 1    
   133   67  133 1    
   134   69   70 1    
   135   69  134 1    
   136   69  135 1    
   137   70   71 1    
   138   71  136 1    
   139   71  137 1    
@<TRIPOS>SUBSTRUCTURE
     1 UNK         1 GROUP             0       ****    0 ROOT    
