@<TRIPOS>MOLECULE
3R137
137   139    1
SMALL
USER_CHARGES


@<TRIPOS>ATOM
      1 CA         31.0547   -5.0904   -5.8118 C.3       0 UNK        -0.2020 
      2 C          30.4889   -5.4540   -4.4469 C.2       0 UNK         0.4855 
      3 O          30.7457   -6.5509   -3.9500 O.2       0 UNK        -0.5197 
      4 N          29.7188   -4.5485   -3.8379 N.am      1 UNK        -0.4892 
      5 CA         29.0734   -4.7161   -2.5372 C.3       1 UNK         0.0835 
      6 C6         30.0926   -4.5232   -1.3668 C.3       12 UNK        -0.0855 
      7 S7         29.4910   -3.8136    0.2123 S.3       12 UNK        -0.2931 
      8 C8         30.5169   -2.3149    0.3821 C.3       12 UNK         0.0378 
      9 C9         30.2270   -1.2888   -0.7047 C.ar      12 UNK        -0.0802 
     10 C10        31.1013   -1.1377   -1.7848 C.ar      12 UNK        -0.0944 
     11 C11        30.8307   -0.2120   -2.7964 C.ar      12 UNK        -0.0787 
     12 C12        29.6812    0.5794   -2.7172 C.ar      12 UNK        -0.0862 
     13 C13        28.8121    0.4542   -1.6283 C.ar      12 UNK        -0.0733 
     14 C14        29.0888   -0.4819   -0.6266 C.ar      12 UNK        -0.0832 
     15 C15        27.5677    1.3206   -1.5333 C.3       12 UNK         0.0240 
     16 S16        26.1016    0.3691   -2.0256 S.3       12 UNK        -0.2522 
     17 C17        25.2904    1.4973   -3.2004 C.3       12 UNK        -0.0967 
     18 CA         25.9381    1.4831   -4.6076 C.3       5 UNK         0.0660 
     19 N          26.0716    0.1222   -5.1537 N.am      5 UNK        -0.4015 
     20 C          26.6480   -0.2084   -6.3193 C.2       4 UNK         0.4946 
     21 O          27.0136    0.6179   -7.1557 O.2       4 UNK        -0.5353 
     22 CA         26.8691   -1.6962   -6.6249 C.3       4 UNK         0.0277 
     23 CB         28.3619   -2.0386   -6.5097 C.3       4 UNK        -0.1981 
     24 N          26.1026   -2.5946   -5.7585 N.am      4 UNK        -0.4209 
     25 C          24.8342   -2.9634   -5.9933 C.2       3 UNK         0.4942 
     26 O          24.1629   -2.5234   -6.9273 O.2       3 UNK        -0.5208 
     27 CA         24.2036   -4.0107   -5.0552 C.3       3 UNK         0.0250 
     28 CB         24.2256   -5.3990   -5.7159 C.3       3 UNK        -0.1990 
     29 N          24.8603   -4.0957   -3.7496 N.am      3 UNK        -0.4232 
     30 C          24.7278   -3.1859   -2.7757 C.2       2 UNK         0.4993 
     31 O          23.9709   -2.2181   -2.8518 O.2       2 UNK        -0.5286 
     32 CA         25.5905   -3.3762   -1.5129 C.3       2 UNK         0.0209 
     33 CB         24.7654   -4.0315   -0.3937 C.3       2 UNK        -0.1931 
     34 N          26.8273   -4.1449   -1.7117 N.am      2 UNK        -0.4546 
     35 C          27.8275   -3.8060   -2.5387 C.2       1 UNK         0.5154 
     36 O          27.7661   -2.8536   -3.3212 O.2       1 UNK        -0.5181 
     37 C          25.2050    2.4868   -5.5228 C.2       5 UNK         0.5014 
     38 O          25.4431    3.6890   -5.4003 O.2       5 UNK        -0.5248 
     39 N          24.3435    1.9911   -6.4228 N.am      6 UNK        -0.4434 
     40 CA         23.6538    2.7858   -7.4420 C.3       6 UNK         0.0363 
     41 CB         22.5696    1.9212   -8.1055 C.3       6 UNK        -0.1936 
     42 C          24.5986    3.3734   -8.5090 C.2       6 UNK         0.5081 
     43 O          24.2646    4.4028   -9.0967 O.2       6 UNK        -0.5248 
     44 N          25.7439    2.7182   -8.7432 N.am      7 UNK        -0.4718 
     45 CA         26.7753    3.1461   -9.6902 C.3       7 UNK         0.0273 
     46 CB         27.0551    1.9997  -10.6758 C.3       7 UNK        -0.1935 
     47 C          28.0728    3.5549   -8.9786 C.2       7 UNK         0.5018 
     48 O          28.7561    4.4593   -9.4600 O.2       7 UNK        -0.5186 
     49 N          28.4157    2.8619   -7.8808 N.am      8 UNK        -0.4240 
     50 CA         29.6315    2.9543   -7.0573 C.3       8 UNK         0.0235 
     51 CB         29.8014    4.3514   -6.4322 C.3       8 UNK        -0.2000 
     52 C          30.9065    2.4963   -7.7871 C.2       8 UNK         0.4941 
     53 O          31.6389    1.6595   -7.2599 O.2       8 UNK        -0.5273 
     54 N          31.1184    2.9927   -9.0135 N.am      9 UNK        -0.4262 
     55 CA         32.1982    2.6076   -9.9294 C.3       9 UNK         0.0264 
     56 CB         32.1491    3.5115  -11.1713 C.3       9 UNK        -0.1955 
     57 C          32.1658    1.1238  -10.3426 C.2       9 UNK         0.5031 
     58 O          33.2034    0.5819  -10.7256 O.2       9 UNK        -0.5390 
     59 N          30.9956    0.4803  -10.2142 N.am      10 UNK        -0.4204 
     60 CA         30.7778   -0.9559  -10.4079 C.3       10 UNK         0.0237 
     61 CB         29.2719   -1.2551  -10.3150 C.3       10 UNK        -0.1985 
     62 C          31.5865   -1.8587   -9.4528 C.2       10 UNK         0.4970 
     63 O          31.7756   -3.0330   -9.7725 O.2       10 UNK        -0.4914 
     64 N          32.0783   -1.3083   -8.3324 N.am      11 UNK        -0.4285 
     65 CA         33.0786   -1.9556   -7.4689 C.3       11 UNK         0.1007 
     66 C          34.4995   -2.0614   -8.1010 C.2       11 UNK         0.5703 
     67 N          34.8112   -1.3701   -9.1924 N.am      11 UNK        -0.7361 
     68 O          35.3388   -2.7998   -7.5910 O.2       11 UNK        -0.4986 
     69 C69        33.1549   -1.2858   -6.0737 C.3       12 UNK        -0.0947 
     70 S70        31.6076   -1.4489   -5.1315 S.3       12 UNK        -0.2240 
     71 C71        31.7927   -0.0706   -3.9643 C.3       12 UNK         0.0194 
     72 H72        32.1402   -5.0136   -5.7577 H         1 UNK         0.0906 
     73 H73        30.8025   -5.8591   -6.5418 H         1 UNK         0.0906 
     74 H74        30.6661   -4.1404   -6.1760 H         1 UNK         0.0906 
     75 H75        29.5018   -3.6601   -4.2753 H         1 UNK         0.3140 
     76 H76        28.6916   -5.7385   -2.4843 H         1 UNK         0.1085 
     77 H77        30.9275   -3.9121   -1.7090 H         1 UNK         0.0836 
     78 H78        30.5459   -5.4888   -1.1377 H         1 UNK         0.0836 
     79 H79        31.5712   -2.5964    0.3774 H         1 UNK         0.0731 
     80 H80        30.3280   -1.8687    1.3596 H         1 UNK         0.0731 
     81 H81        31.9902   -1.7502   -1.8501 H         1 UNK         0.1312 
     82 H82        29.4654    1.2927   -3.5006 H         1 UNK         0.1406 
     83 H83        28.4084   -0.5934    0.2068 H         1 UNK         0.1631 
     84 H84        27.6770    2.2103   -2.1549 H         1 UNK         0.0717 
     85 H85        27.4370    1.6765   -0.5104 H         1 UNK         0.0717 
     86 H86        24.2409    1.2019   -3.2636 H         1 UNK         0.0934 
     87 H87        25.2951    2.5040   -2.7768 H         1 UNK         0.0934 
     88 H88        26.9573    1.8617   -4.5087 H         1 UNK         0.0739 
     89 H89        25.8155   -0.6240   -4.5219 H         1 UNK         0.3093 
     90 H90        26.5692   -1.8586   -7.6625 H         1 UNK         0.0818 
     91 H91        28.7246   -1.8971   -5.4927 H         1 UNK         0.0819 
     92 H92        28.9697   -1.3977   -7.1481 H         1 UNK         0.0819 
     93 H93        28.5567   -3.0695   -6.8037 H         1 UNK         0.0819 
     94 H94        26.5798   -2.9357   -4.9293 H         1 UNK         0.3041 
     95 H95        23.1611   -3.7242   -4.8995 H         1 UNK         0.0784 
     96 H96        23.7151   -5.3805   -6.6799 H         1 UNK         0.0793 
     97 H97        25.2441   -5.7468   -5.8936 H         1 UNK         0.0793 
     98 H98        23.7190   -6.1410   -5.0983 H         1 UNK         0.0793 
     99 H99        25.4905   -4.8698   -3.5991 H         1 UNK         0.3024 
    100 H100       25.8856   -2.3808   -1.1772 H         1 UNK         0.1171 
    101 H101       25.3251   -4.0705    0.5412 H         1 UNK         0.0786 
    102 H102       23.8533   -3.4655   -0.1983 H         1 UNK         0.0786 
    103 H103       24.4691   -5.0487   -0.6529 H         1 UNK         0.0786 
    104 H104       26.9613   -4.9379   -1.1002 H         1 UNK         0.2977 
    105 H105       24.2046    0.9911   -6.4521 H         1 UNK         0.3127 
    106 H106       23.1647    3.6241   -6.9411 H         1 UNK         0.0770 
    107 H107       22.9970    1.0530   -8.6090 H         1 UNK         0.0814 
    108 H108       22.0190    2.4931   -8.8539 H         1 UNK         0.0814 
    109 H109       21.8433    1.5639   -7.3753 H         1 UNK         0.0814 
    110 H110       25.9530    1.8931   -8.1893 H         1 UNK         0.2983 
    111 H111       26.4367    4.0117  -10.2639 H         1 UNK         0.0947 
    112 H112       27.8487    2.2653  -11.3760 H         1 UNK         0.0806 
    113 H113       26.1693    1.7641  -11.2658 H         1 UNK         0.0806 
    114 H114       27.3607    1.0902  -10.1583 H         1 UNK         0.0806 
    115 H115       27.8091    2.0842   -7.6189 H         1 UNK         0.3000 
    116 H116       29.4769    2.2495   -6.2381 H         1 UNK         0.0850 
    117 H117       30.6492    4.3681   -5.7461 H         1 UNK         0.0810 
    118 H118       28.9170    4.6380   -5.8629 H         1 UNK         0.0810 
    119 H119       29.9792    5.1205   -7.1842 H         1 UNK         0.0810 
    120 H120       30.4385    3.6693   -9.3552 H         1 UNK         0.3040 
    121 H121       33.1450    2.7787   -9.4131 H         1 UNK         0.0766 
    122 H122       32.2630    4.5618  -10.9022 H         1 UNK         0.0812 
    123 H123       31.2078    3.4038  -11.7119 H         1 UNK         0.0812 
    124 H124       32.9548    3.2671  -11.8652 H         1 UNK         0.0812 
    125 H125       30.2060    1.0164   -9.8887 H         1 UNK         0.3205 
    126 H126       31.1087   -1.2011  -11.4192 H         1 UNK         0.0754 
    127 H127       29.0767   -2.3269  -10.3747 H         1 UNK         0.0769 
    128 H128       28.7282   -0.7862  -11.1353 H         1 UNK         0.0769 
    129 H129       28.8411   -0.8952   -9.3812 H         1 UNK         0.0769 
    130 H130       31.8739   -0.3401   -8.1161 H         1 UNK         0.2981 
    131 H131       32.7534   -2.9861   -7.3160 H         1 UNK         0.0541 
    132 H132       34.1435   -0.7495   -9.6391 H         1 UNK         0.3459 
    133 H133       35.7362   -1.4638   -9.5799 H         1 UNK         0.3459 
    134 H134       33.9448   -1.7340   -5.4679 H         1 UNK         0.0612 
    135 H135       33.4066   -0.2285   -6.1763 H         1 UNK         0.0612 
    136 H136       32.8161   -0.0468   -3.5867 H         1 UNK         0.0624 
    137 H137       31.6322    0.8706   -4.4927 H         1 UNK         0.0624 
@<TRIPOS>BOND
     1    1    2 1    
     2    1   72 1    
     3    1   73 1    
     4    1   74 1    
     5    2    3 2    
     6    2    4 am   BACKBONE|DICT|INTERRES
     7    4    5 1    
     8    4   75 1    
     9    5    6 1    
    10    5   35 1    
    11    5   76 1    
    12    6    7 1    
    13    6   77 1    
    14    6   78 1    
    15    7    8 1    
    16    8    9 1    
    17    8   79 1    
    18    8   80 1    
    19    9   10 ar   
    20    9   14 ar   
    21   10   11 ar   
    22   10   81 1    
    23   11   12 ar   
    24   11   71 1    
    25   12   13 ar   
    26   12   82 1    
    27   13   14 ar   
    28   13   15 1    
    29   14   83 1    
    30   15   16 1    
    31   15   84 1    
    32   15   85 1    
    33   16   17 1    
    34   17   18 1    
    35   17   86 1    
    36   17   87 1    
    37   18   19 1    
    38   18   37 1    
    39   18   88 1    
    40   19   20 am   BACKBONE|DICT|INTERRES
    41   19   89 1    
    42   20   21 2    
    43   20   22 1    
    44   22   23 1    
    45   22   24 1    
    46   22   90 1    
    47   23   91 1    
    48   23   92 1    
    49   23   93 1    
    50   24   25 am   BACKBONE|DICT|INTERRES
    51   24   94 1    
    52   25   26 2    
    53   25   27 1    
    54   27   28 1    
    55   27   29 1    
    56   27   95 1    
    57   28   96 1    
    58   28   97 1    
    59   28   98 1    
    60   29   30 am   BACKBONE|DICT|INTERRES
    61   29   99 1    
    62   30   31 2    
    63   30   32 1    
    64   32   33 1    
    65   32   34 1    
    66   32  100 1    
    67   33  101 1    
    68   33  102 1    
    69   33  103 1    
    70   34   35 am   BACKBONE|DICT|INTERRES
    71   34  104 1    
    72   35   36 2    
    73   37   38 2    
    74   37   39 am   BACKBONE|DICT|INTERRES
    75   39   40 1    
    76   39  105 1    
    77   40   41 1    
    78   40   42 1    
    79   40  106 1    
    80   41  107 1    
    81   41  108 1    
    82   41  109 1    
    83   42   43 2    
    84   42   44 am   BACKBONE|DICT|INTERRES
    85   44   45 1    
    86   44  110 1    
    87   45   46 1    
    88   45   47 1    
    89   45  111 1    
    90   46  112 1    
    91   46  113 1    
    92   46  114 1    
    93   47   48 2    
    94   47   49 am   BACKBONE|DICT|INTERRES
    95   49   50 1    
    96   49  115 1    
    97   50   51 1    
    98   50   52 1    
    99   50  116 1    
   100   51  117 1    
   101   51  118 1    
   102   51  119 1    
   103   52   53 2    
   104   52   54 am   BACKBONE|DICT|INTERRES
   105   54   55 1    
   106   54  120 1    
   107   55   56 1    
   108   55   57 1    
   109   55  121 1    
   110   56  122 1    
   111   56  123 1    
   112   56  124 1    
   113   57   58 2    
   114   57   59 am   BACKBONE|DICT|INTERRES
   115   59   60 1    
   116   59  125 1    
   117   60   61 1    
   118   60   62 1    
   119   60  126 1    
   120   61  127 1    
   121   61  128 1    
   122   61  129 1    
   123   62   63 2    
   124   62   64 am   BACKBONE|DICT|INTERRES
   125   64   65 1    
   126   64  130 1    
   127   65   66 1    
   128   65   69 1    
   129   65  131 1    
   130   66   67 am   BACKBONE|DICT|INTERRES
   131   66   68 2    
   132   67  132 1    
   133   67  133 1    
   134   69   70 1    
   135   69  134 1    
   136   69  135 1    
   137   70   71 1    
   138   71  136 1    
   139   71  137 1    
@<TRIPOS>SUBSTRUCTURE
     1 UNK         1 GROUP             0       ****    0 ROOT    
