@<TRIPOS>MOLECULE
3R137
137   139    1
SMALL
USER_CHARGES


@<TRIPOS>ATOM
      1 CA         25.3492   -4.7071   -3.8555 C.3       0 UNK        -0.2020 
      2 C          25.6991   -3.7393   -2.7364 C.2       0 UNK         0.4855 
      3 O          24.8149   -3.0547   -2.2209 O.2       0 UNK        -0.5197 
      4 N          26.9793   -3.6769   -2.3476 N.am      1 UNK        -0.4892 
      5 CA         27.4761   -2.8361   -1.2523 C.3       1 UNK         0.0835 
      6 C6         28.9448   -3.1528   -0.8773 C.3       12 UNK        -0.0855 
      7 S7         29.1561   -4.9084   -0.4033 S.3       12 UNK        -0.2931 
      8 C8         30.9163   -5.2290   -0.7700 C.3       12 UNK         0.0378 
      9 C9         31.3143   -4.8509   -2.1925 C.ar      12 UNK        -0.0802 
     10 C10        32.4162   -4.0157   -2.4079 C.ar      12 UNK        -0.0944 
     11 C11        32.7688   -3.6060   -3.6974 C.ar      12 UNK        -0.0787 
     12 C12        31.9920   -4.0441   -4.7785 C.ar      12 UNK        -0.0862 
     13 C13        30.8840   -4.8713   -4.5785 C.ar      12 UNK        -0.0733 
     14 C14        30.5664   -5.2969   -3.2869 C.ar      12 UNK        -0.0832 
     15 C15        30.0009   -5.2543   -5.7570 C.3       12 UNK         0.0240 
     16 S16        28.4089   -4.3683   -5.7180 S.3       12 UNK        -0.2522 
     17 C17        28.9202   -2.6142   -5.6405 C.3       12 UNK        -0.0967 
     18 CA         28.1789   -1.7197   -6.6601 C.3       5 UNK         0.0660 
     19 N          26.7206   -1.8253   -6.5325 N.am      5 UNK        -0.4015 
     20 C          25.8471   -1.3865   -7.4470 C.2       4 UNK         0.4946 
     21 O          26.1750   -0.8003   -8.4769 O.2       4 UNK        -0.5353 
     22 CA         24.3525   -1.5940   -7.1508 C.3       4 UNK         0.0277 
     23 CB         23.9126   -3.0030   -7.5784 C.3       4 UNK        -0.1981 
     24 N          23.9363   -1.3417   -5.7646 N.am      4 UNK        -0.4209 
     25 C          24.2088   -0.2443   -5.0418 C.2       3 UNK         0.4942 
     26 O          24.9976    0.6295   -5.4043 O.2       3 UNK        -0.5208 
     27 CA         23.4665   -0.0731   -3.7044 C.3       3 UNK         0.0250 
     28 CB         22.3458   -1.1069   -3.4637 C.3       3 UNK        -0.1990 
     29 N          24.4229   -0.1140   -2.5981 N.am      3 UNK        -0.4232 
     30 C          25.0366    0.9622   -2.0807 C.2       2 UNK         0.4993 
     31 O          24.7896    2.1183   -2.4273 O.2       2 UNK        -0.5286 
     32 CA         26.0821    0.7426   -0.9682 C.3       2 UNK         0.0209 
     33 CB         25.5696    1.3000    0.3714 C.3       2 UNK        -0.1931 
     34 N          26.4660   -0.6581   -0.7769 N.am      2 UNK        -0.4546 
     35 C          27.2853   -1.3422   -1.5849 C.2       1 UNK         0.5154 
     36 O          27.8453   -0.8546   -2.5683 O.2       1 UNK        -0.5181 
     37 C          28.6914   -0.2656   -6.5646 C.2       5 UNK         0.5014 
     38 O          29.7778    0.0249   -7.0770 O.2       5 UNK        -0.5248 
     39 N          27.9271    0.6180   -5.9084 N.am      6 UNK        -0.4434 
     40 CA         28.1965    2.0521   -5.8416 C.3       6 UNK         0.0363 
     41 CB         27.7448    2.6007   -4.4801 C.3       6 UNK        -0.1936 
     42 C          27.4891    2.7833   -6.9895 C.2       6 UNK         0.5081 
     43 O          28.0968    3.6563   -7.6063 O.2       6 UNK        -0.5248 
     44 N          26.2395    2.3964   -7.2869 N.am      7 UNK        -0.4718 
     45 CA         25.4156    2.9661   -8.3590 C.3       7 UNK         0.0273 
     46 CB         23.9900    2.4012   -8.2692 C.3       7 UNK        -0.1935 
     47 C          26.0013    2.7464   -9.7649 C.2       7 UNK         0.5018 
     48 O          25.9640    3.6653  -10.5837 O.2       7 UNK        -0.5186 
     49 N          26.5662    1.5554  -10.0079 N.am      8 UNK        -0.4240 
     50 CA         27.3032    1.2170  -11.2298 C.3       8 UNK         0.0235 
     51 CB         27.3115   -0.3093  -11.4039 C.3       8 UNK        -0.2000 
     52 C          28.7429    1.7627  -11.2429 C.2       8 UNK         0.4941 
     53 O          29.4111    1.6400  -12.2702 O.2       8 UNK        -0.5273 
     54 N          29.1985    2.3333  -10.1163 N.am      9 UNK        -0.4262 
     55 CA         30.5333    2.8844   -9.8673 C.3       9 UNK         0.0264 
     56 CB         30.7686    4.1515  -10.7166 C.3       9 UNK        -0.1955 
     57 C          31.6537    1.8390  -10.0173 C.2       9 UNK         0.5031 
     58 O          32.6960    2.1382  -10.6023 O.2       9 UNK        -0.5390 
     59 N          31.4242    0.6305   -9.4824 N.am      10 UNK        -0.4204 
     60 CA         32.4226   -0.4386   -9.4310 C.3       10 UNK         0.0237 
     61 CB         31.7359   -1.8006   -9.2249 C.3       10 UNK        -0.1985 
     62 C          33.4510   -0.1474   -8.3302 C.2       10 UNK         0.4970 
     63 O          34.6434   -0.0525   -8.6214 O.2       10 UNK        -0.4914 
     64 N          32.9478    0.0307   -7.1047 N.am      11 UNK        -0.4285 
     65 CA         33.6986    0.4079   -5.8967 C.3       11 UNK         0.1007 
     66 C          32.7876    0.7365   -4.6770 C.2       11 UNK         0.5703 
     67 N          31.4632    0.7031   -4.7833 N.am      11 UNK        -0.7361 
     68 O          33.2932    1.0598   -3.6045 O.2       11 UNK        -0.4986 
     69 C69        34.8765   -0.5537   -5.5343 C.3       12 UNK        -0.0947 
     70 S70        34.4615   -2.3285   -5.5823 S.3       12 UNK        -0.2240 
     71 C71        33.9581   -2.6552   -3.8571 C.3       12 UNK         0.0194 
     72 H72        26.1110   -5.4747   -3.9740 H         1 UNK         0.0906 
     73 H73        25.2477   -4.1755   -4.7973 H         1 UNK         0.0906 
     74 H74        24.4062   -5.2048   -3.6427 H         1 UNK         0.0906 
     75 H75        27.6771   -4.2391   -2.8133 H         1 UNK         0.3140 
     76 H76        26.8640   -3.0694   -0.3777 H         1 UNK         0.1085 
     77 H77        29.6027   -2.9021   -1.7111 H         1 UNK         0.0836 
     78 H78        29.2691   -2.5345   -0.0378 H         1 UNK         0.0836 
     79 H79        31.1235   -6.2891   -0.6157 H         1 UNK         0.0731 
     80 H80        31.5223   -4.6893   -0.0411 H         1 UNK         0.0731 
     81 H81        32.9947   -3.6634   -1.5642 H         1 UNK         0.1312 
     82 H82        32.2162   -3.7225   -5.7849 H         1 UNK         0.1406 
     83 H83        29.7060   -5.9338   -3.1284 H         1 UNK         0.1631 
     84 H84        29.8110   -6.3279   -5.7368 H         1 UNK         0.0717 
     85 H85        30.5009   -5.0473   -6.7044 H         1 UNK         0.0717 
     86 H86        28.7617   -2.2613   -4.6202 H         1 UNK         0.0934 
     87 H87        29.9931   -2.5420   -5.8183 H         1 UNK         0.0934 
     88 H88        28.4399   -2.0717   -7.6606 H         1 UNK         0.0739 
     89 H89        26.3736   -2.2846   -5.7048 H         1 UNK         0.3093 
     90 H90        23.8059   -0.8814   -7.7694 H         1 UNK         0.0818 
     91 H91        24.1723   -3.1915   -8.6211 H         1 UNK         0.0819 
     92 H92        24.3908   -3.7794   -6.9820 H         1 UNK         0.0819 
     93 H93        22.8329   -3.1282   -7.4905 H         1 UNK         0.0819 
     94 H94        23.2797   -2.0008   -5.3717 H         1 UNK         0.3041 
     95 H95        22.9905    0.9094   -3.7402 H         1 UNK         0.0784 
     96 H96        21.5858   -1.0508   -4.2444 H         1 UNK         0.0793 
     97 H97        22.7168   -2.1312   -3.4312 H         1 UNK         0.0793 
     98 H98        21.8387   -0.9157   -2.5179 H         1 UNK         0.0793 
     99 H99        24.6863   -1.0392   -2.2709 H         1 UNK         0.3024 
    100 H100       26.9722    1.3071   -1.2564 H         1 UNK         0.1171 
    101 H101       25.3103    2.3562    0.2838 H         1 UNK         0.0786 
    102 H102       24.6770    0.7740    0.7121 H         1 UNK         0.0786 
    103 H103       26.3271    1.2197    1.1516 H         1 UNK         0.0786 
    104 H104       26.0254   -1.1419   -0.0073 H         1 UNK         0.2977 
    105 H105       27.0324    0.3167   -5.5378 H         1 UNK         0.3127 
    106 H106       29.2687    2.2344   -5.9358 H         1 UNK         0.0770 
    107 H107       26.6668    2.5117   -4.3458 H         1 UNK         0.0814 
    108 H108       27.9987    3.6569   -4.3828 H         1 UNK         0.0814 
    109 H109       28.2282    2.0708   -3.6592 H         1 UNK         0.0814 
    110 H110       25.7987    1.6940   -6.6962 H         1 UNK         0.2983 
    111 H111       25.3647    4.0441   -8.1914 H         1 UNK         0.0947 
    112 H112       23.9735    1.3269   -8.4486 H         1 UNK         0.0806 
    113 H113       23.3396    2.8650   -9.0120 H         1 UNK         0.0806 
    114 H114       23.5487    2.5859   -7.2893 H         1 UNK         0.0806 
    115 H115       26.4964    0.8205   -9.3046 H         1 UNK         0.3000 
    116 H116       26.7833    1.6529  -12.0843 H         1 UNK         0.0850 
    117 H117       27.7789   -0.5935  -12.3472 H         1 UNK         0.0810 
    118 H118       26.3004   -0.7140  -11.4075 H         1 UNK         0.0810 
    119 H119       27.8647   -0.8021  -10.6047 H         1 UNK         0.0810 
    120 H120       28.5515    2.4283   -9.3429 H         1 UNK         0.3040 
    121 H121       30.5456    3.1870   -8.8195 H         1 UNK         0.0766 
    122 H122       30.8176    3.9236  -11.7815 H         1 UNK         0.0812 
    123 H123       31.7069    4.6353  -10.4456 H         1 UNK         0.0812 
    124 H124       29.9740    4.8810  -10.5650 H         1 UNK         0.0812 
    125 H125       30.5704    0.4822   -8.9575 H         1 UNK         0.3205 
    126 H126       32.9496   -0.4730  -10.3864 H         1 UNK         0.0754 
    127 H127       32.4715   -2.6059   -9.2190 H         1 UNK         0.0769 
    128 H128       31.0310   -2.0113  -10.0290 H         1 UNK         0.0769 
    129 H129       31.1915   -1.8558   -8.2832 H         1 UNK         0.0769 
    130 H130       31.9486   -0.0635   -6.9859 H         1 UNK         0.2981 
    131 H131       34.1516    1.3706   -6.1359 H         1 UNK         0.0541 
    132 H132       30.9792    0.4804   -5.6431 H         1 UNK         0.3459 
    133 H133       30.9235    0.9262   -3.9623 H         1 UNK         0.3459 
    134 H134       35.3146   -0.3080   -4.5656 H         1 UNK         0.0612 
    135 H135       35.6899   -0.4063   -6.2456 H         1 UNK         0.0612 
    136 H136       33.7057   -1.7162   -3.3627 H         1 UNK         0.0624 
    137 H137       34.8211   -3.0596   -3.3238 H         1 UNK         0.0624 
@<TRIPOS>BOND
     1    1    2 1    
     2    1   72 1    
     3    1   73 1    
     4    1   74 1    
     5    2    3 2    
     6    2    4 am   BACKBONE|DICT|INTERRES
     7    4    5 1    
     8    4   75 1    
     9    5    6 1    
    10    5   35 1    
    11    5   76 1    
    12    6    7 1    
    13    6   77 1    
    14    6   78 1    
    15    7    8 1    
    16    8    9 1    
    17    8   79 1    
    18    8   80 1    
    19    9   10 ar   
    20    9   14 ar   
    21   10   11 ar   
    22   10   81 1    
    23   11   12 ar   
    24   11   71 1    
    25   12   13 ar   
    26   12   82 1    
    27   13   14 ar   
    28   13   15 1    
    29   14   83 1    
    30   15   16 1    
    31   15   84 1    
    32   15   85 1    
    33   16   17 1    
    34   17   18 1    
    35   17   86 1    
    36   17   87 1    
    37   18   19 1    
    38   18   37 1    
    39   18   88 1    
    40   19   20 am   BACKBONE|DICT|INTERRES
    41   19   89 1    
    42   20   21 2    
    43   20   22 1    
    44   22   23 1    
    45   22   24 1    
    46   22   90 1    
    47   23   91 1    
    48   23   92 1    
    49   23   93 1    
    50   24   25 am   BACKBONE|DICT|INTERRES
    51   24   94 1    
    52   25   26 2    
    53   25   27 1    
    54   27   28 1    
    55   27   29 1    
    56   27   95 1    
    57   28   96 1    
    58   28   97 1    
    59   28   98 1    
    60   29   30 am   BACKBONE|DICT|INTERRES
    61   29   99 1    
    62   30   31 2    
    63   30   32 1    
    64   32   33 1    
    65   32   34 1    
    66   32  100 1    
    67   33  101 1    
    68   33  102 1    
    69   33  103 1    
    70   34   35 am   BACKBONE|DICT|INTERRES
    71   34  104 1    
    72   35   36 2    
    73   37   38 2    
    74   37   39 am   BACKBONE|DICT|INTERRES
    75   39   40 1    
    76   39  105 1    
    77   40   41 1    
    78   40   42 1    
    79   40  106 1    
    80   41  107 1    
    81   41  108 1    
    82   41  109 1    
    83   42   43 2    
    84   42   44 am   BACKBONE|DICT|INTERRES
    85   44   45 1    
    86   44  110 1    
    87   45   46 1    
    88   45   47 1    
    89   45  111 1    
    90   46  112 1    
    91   46  113 1    
    92   46  114 1    
    93   47   48 2    
    94   47   49 am   BACKBONE|DICT|INTERRES
    95   49   50 1    
    96   49  115 1    
    97   50   51 1    
    98   50   52 1    
    99   50  116 1    
   100   51  117 1    
   101   51  118 1    
   102   51  119 1    
   103   52   53 2    
   104   52   54 am   BACKBONE|DICT|INTERRES
   105   54   55 1    
   106   54  120 1    
   107   55   56 1    
   108   55   57 1    
   109   55  121 1    
   110   56  122 1    
   111   56  123 1    
   112   56  124 1    
   113   57   58 2    
   114   57   59 am   BACKBONE|DICT|INTERRES
   115   59   60 1    
   116   59  125 1    
   117   60   61 1    
   118   60   62 1    
   119   60  126 1    
   120   61  127 1    
   121   61  128 1    
   122   61  129 1    
   123   62   63 2    
   124   62   64 am   BACKBONE|DICT|INTERRES
   125   64   65 1    
   126   64  130 1    
   127   65   66 1    
   128   65   69 1    
   129   65  131 1    
   130   66   67 am   BACKBONE|DICT|INTERRES
   131   66   68 2    
   132   67  132 1    
   133   67  133 1    
   134   69   70 1    
   135   69  134 1    
   136   69  135 1    
   137   70   71 1    
   138   71  136 1    
   139   71  137 1    
@<TRIPOS>SUBSTRUCTURE
     1 UNK         1 GROUP             0       ****    0 ROOT    
