@<TRIPOS>MOLECULE
3R137
137   139    1
SMALL
USER_CHARGES


@<TRIPOS>ATOM
      1 CA         25.6727   -6.6903   -3.3256 C.3       0 UNK        -0.2020 
      2 C          25.9035   -5.5858   -2.3060 C.2       0 UNK         0.4855 
      3 O          24.9437   -5.0586   -1.7430 O.2       0 UNK        -0.5197 
      4 N          27.1721   -5.2239   -2.0757 N.am      1 UNK        -0.4892 
      5 CA         27.6208   -4.1699   -1.1584 C.3       1 UNK         0.0835 
      6 C6         29.1658   -4.1529   -1.0900 C.3       12 UNK        -0.0855 
      7 S7         29.8246   -3.0930    0.2407 S.3       12 UNK        -0.2931 
      8 C8         31.3699   -2.4913   -0.5160 C.3       12 UNK         0.0378 
      9 C9         31.1105   -1.5356   -1.6727 C.ar      12 UNK        -0.0802 
     10 C10        31.3044   -1.9491   -2.9942 C.ar      12 UNK        -0.0944 
     11 C11        31.0674   -1.0700   -4.0544 C.ar      12 UNK        -0.0787 
     12 C12        30.6637    0.2400   -3.7847 C.ar      12 UNK        -0.0862 
     13 C13        30.4363    0.6593   -2.4682 C.ar      12 UNK        -0.0733 
     14 C14        30.6731   -0.2334   -1.4183 C.ar      12 UNK        -0.0832 
     15 C15        29.9285    2.0637   -2.1475 C.3       12 UNK         0.0240 
     16 S16        28.6783    2.7184   -3.3089 S.3       12 UNK        -0.2522 
     17 C17        27.4699    1.3527   -3.4569 C.3       12 UNK        -0.0967 
     18 CA         27.3858    0.8349   -4.9190 C.3       5 UNK         0.0660 
     19 N          27.1889   -0.6183   -4.9856 N.am      5 UNK        -0.4015 
     20 C          27.2787   -1.3722   -6.0924 C.2       4 UNK         0.4946 
     21 O          27.5824   -0.9277   -7.1990 O.2       4 UNK        -0.5353 
     22 CA         26.8732   -2.8492   -5.9588 C.3       4 UNK         0.0277 
     23 CB         28.0682   -3.7215   -5.5393 C.3       4 UNK        -0.1981 
     24 N          25.7639   -3.0058   -5.0114 N.am      4 UNK        -0.4209 
     25 C          24.4900   -2.6921   -5.2988 C.2       3 UNK         0.4942 
     26 O          24.1118   -2.3669   -6.4230 O.2       3 UNK        -0.5208 
     27 CA         23.4678   -2.6968   -4.1482 C.3       3 UNK         0.0250 
     28 CB         22.6939   -4.0237   -4.1053 C.3       3 UNK        -0.1990 
     29 N          24.0797   -2.4292   -2.8440 N.am      3 UNK        -0.4232 
     30 C          24.4930   -1.2139   -2.4494 C.2       2 UNK         0.4993 
     31 O          24.3380   -0.1919   -3.1175 O.2       2 UNK        -0.5286 
     32 CA         25.2528   -1.1221   -1.1119 C.3       2 UNK         0.0209 
     33 CB         24.2794   -0.8319    0.0412 C.3       2 UNK        -0.1931 
     34 N          26.0400   -2.3193   -0.7970 N.am      2 UNK        -0.4546 
     35 C          27.0244   -2.8049   -1.5661 C.2       1 UNK         0.5154 
     36 O          27.3952   -2.2608   -2.6078 O.2       1 UNK        -0.5181 
     37 C          26.3854    1.6578   -5.7669 C.2       5 UNK         0.5014 
     38 O          26.6283    2.8437   -5.9906 O.2       5 UNK        -0.5248 
     39 N          25.3225    1.0336   -6.2989 N.am      6 UNK        -0.4434 
     40 CA         24.4636    1.6100   -7.3401 C.3       6 UNK         0.0363 
     41 CB         23.2799    0.6686   -7.6079 C.3       6 UNK        -0.1936 
     42 C          25.2192    1.9141   -8.6522 C.2       6 UNK         0.5081 
     43 O          24.8057    2.8104   -9.3875 O.2       6 UNK        -0.5248 
     44 N          26.3265    1.1991   -8.9047 N.am      7 UNK        -0.4718 
     45 CA         27.2693    1.4590   -9.9964 C.3       7 UNK         0.0273 
     46 CB         27.8102    0.1123  -10.5053 C.3       7 UNK        -0.1935 
     47 C          28.4233    2.3930   -9.5733 C.2       7 UNK         0.5018 
     48 O          29.3603    2.5774  -10.3526 O.2       7 UNK        -0.5186 
     49 N          28.3584    2.9585   -8.3570 N.am      8 UNK        -0.4240 
     50 CA         29.3692    3.8040   -7.7171 C.3       8 UNK         0.0235 
     51 CB         29.4515    5.1809   -8.4168 C.3       8 UNK        -0.2000 
     52 C          30.7119    3.0607   -7.5934 C.2       8 UNK         0.4941 
     53 O          30.7488    1.9923   -6.9833 O.2       8 UNK        -0.5273 
     54 N          31.7792    3.6224   -8.1747 N.am      9 UNK        -0.4262 
     55 CA         33.1251    3.0478   -8.1826 C.3       9 UNK         0.0264 
     56 CB         34.1354    4.1497   -8.5431 C.3       9 UNK        -0.1955 
     57 C          33.2884    1.8410   -9.1254 C.2       9 UNK         0.5031 
     58 O          34.2692    1.1087   -8.9799 O.2       9 UNK        -0.5390 
     59 N          32.3597    1.6354  -10.0724 N.am      10 UNK        -0.4204 
     60 CA         32.3938    0.5337  -11.0396 C.3       10 UNK         0.0237 
     61 CB         31.6584    0.9559  -12.3255 C.3       10 UNK        -0.1985 
     62 C          31.8412   -0.7680  -10.4285 C.2       10 UNK         0.4970 
     63 O          30.8613   -1.3206  -10.9307 O.2       10 UNK        -0.4914 
     64 N          32.4780   -1.2215   -9.3429 N.am      11 UNK        -0.4285 
     65 CA         32.1635   -2.4568   -8.6142 C.3       11 UNK         0.1007 
     66 C          32.2979   -3.7309   -9.4940 C.2       11 UNK         0.5703 
     67 N          31.4323   -4.7165   -9.2976 N.am      11 UNK        -0.7361 
     68 O          33.2049   -3.8507  -10.3165 O.2       11 UNK        -0.4986 
     69 C69        33.0326   -2.5969   -7.3366 C.3       12 UNK        -0.0947 
     70 S70        32.8569   -1.2111   -6.1632 S.3       12 UNK        -0.2240 
     71 C71        31.2048   -1.5523   -5.4891 C.3       12 UNK         0.0194 
     72 H72        26.5769   -7.2723   -3.5030 H         1 UNK         0.0906 
     73 H73        24.8986   -7.3721   -2.9739 H         1 UNK         0.0906 
     74 H74        25.3490   -6.2657   -4.2753 H         1 UNK         0.0906 
     75 H75        27.9086   -5.6906   -2.5856 H         1 UNK         0.3140 
     76 H76        27.2450   -4.4285   -0.1660 H         1 UNK         0.1085 
     77 H77        29.5784   -3.8566   -2.0545 H         1 UNK         0.0836 
     78 H78        29.5395   -5.1614   -0.9055 H         1 UNK         0.0836 
     79 H79        31.9685   -3.3434   -0.8422 H         1 UNK         0.0731 
     80 H80        31.9597   -1.9803    0.2464 H         1 UNK         0.0731 
     81 H81        31.6276   -2.9603   -3.2004 H         1 UNK         0.1312 
     82 H82        30.4998    0.9234   -4.6056 H         1 UNK         0.1406 
     83 H83        30.5085    0.0788   -0.3957 H         1 UNK         0.1631 
     84 H84        30.7787    2.7464   -2.1300 H         1 UNK         0.0717 
     85 H85        29.4941    2.0873   -1.1468 H         1 UNK         0.0717 
     86 H86        27.7657    0.5494   -2.7811 H         1 UNK         0.0934 
     87 H87        26.4975    1.6898   -3.0920 H         1 UNK         0.0934 
     88 H88        28.3532    0.9983   -5.3976 H         1 UNK         0.0739 
     89 H89        27.0210   -1.0928   -4.1031 H         1 UNK         0.3093 
     90 H90        26.5398   -3.1929   -6.9407 H         1 UNK         0.0818 
     91 H91        28.5233   -3.3829   -4.6088 H         1 UNK         0.0819 
     92 H92        27.7745   -4.7633   -5.4115 H         1 UNK         0.0819 
     93 H93        28.8452   -3.6971   -6.3040 H         1 UNK         0.0819 
     94 H94        26.0158   -3.1968   -4.0509 H         1 UNK         0.3041 
     95 H95        22.7473   -1.9016   -4.3536 H         1 UNK         0.0784 
     96 H96        22.1779   -4.2023   -5.0497 H         1 UNK         0.0793 
     97 H97        23.3499   -4.8749   -3.9297 H         1 UNK         0.0793 
     98 H98        21.9377   -4.0163   -3.3203 H         1 UNK         0.0793 
     99 H99        24.2672   -3.2335   -2.2512 H         1 UNK         0.3024 
    100 H100       25.9479   -0.2837   -1.1925 H         1 UNK         0.1171 
    101 H101       24.8114   -0.6697    0.9790 H         1 UNK         0.0786 
    102 H102       23.6964    0.0686   -0.1579 H         1 UNK         0.0786 
    103 H103       23.5743   -1.6506    0.1909 H         1 UNK         0.0786 
    104 H104       25.7566   -2.8450    0.0178 H         1 UNK         0.2977 
    105 H105       25.1664    0.0625   -6.0681 H         1 UNK         0.3127 
    106 H106       24.0709    2.5551   -6.9590 H         1 UNK         0.0770 
    107 H107       23.6089   -0.2793   -8.0352 H         1 UNK         0.0814 
    108 H108       22.5797    1.1165   -8.3142 H         1 UNK         0.0814 
    109 H109       22.7258    0.4521   -6.6943 H         1 UNK         0.0814 
    110 H110       26.6080    0.4756   -8.2475 H         1 UNK         0.2983 
    111 H111       26.7487    1.9480  -10.8225 H         1 UNK         0.0947 
    112 H112       28.4432    0.2485  -11.3827 H         1 UNK         0.0806 
    113 H113       27.0019   -0.5595  -10.7937 H         1 UNK         0.0806 
    114 H114       28.4119   -0.3920   -9.7479 H         1 UNK         0.0806 
    115 H115       27.5601    2.7439   -7.7696 H         1 UNK         0.3000 
    116 H116       29.0267    3.9737   -6.6950 H         1 UNK         0.0850 
    117 H117       30.1363    5.8506   -7.8947 H         1 UNK         0.0810 
    118 H118       28.4772    5.6699   -8.4218 H         1 UNK         0.0810 
    119 H119       29.7811    5.1033   -9.4535 H         1 UNK         0.0810 
    120 H120       31.6524    4.4940   -8.6689 H         1 UNK         0.3040 
    121 H121       33.3500    2.6970   -7.1728 H         1 UNK         0.0766 
    122 H122       34.0901    4.9779   -7.8356 H         1 UNK         0.0812 
    123 H123       33.9587    4.5492   -9.5426 H         1 UNK         0.0812 
    124 H124       35.1563    3.7654   -8.5224 H         1 UNK         0.0812 
    125 H125       31.5330    2.2228  -10.0901 H         1 UNK         0.3205 
    126 H126       33.4321    0.3380  -11.3164 H         1 UNK         0.0754 
    127 H127       31.7273    0.1774  -13.0864 H         1 UNK         0.0769 
    128 H128       32.0902    1.8621  -12.7504 H         1 UNK         0.0769 
    129 H129       30.5997    1.1415  -12.1478 H         1 UNK         0.0769 
    130 H130       33.2636   -0.6824   -8.9959 H         1 UNK         0.2981 
    131 H131       31.1184   -2.3770   -8.3089 H         1 UNK         0.0541 
    132 H132       30.6913   -4.6360   -8.6197 H         1 UNK         0.3459 
    133 H133       31.5164   -5.5563   -9.8488 H         1 UNK         0.3459 
    134 H134       32.7965   -3.5221   -6.8074 H         1 UNK         0.0612 
    135 H135       34.0880   -2.6685   -7.6063 H         1 UNK         0.0612 
    136 H136       30.9984   -2.6222   -5.5327 H         1 UNK         0.0624 
    137 H137       30.4578   -1.0695   -6.1217 H         1 UNK         0.0624 
@<TRIPOS>BOND
     1    1    2 1    
     2    1   72 1    
     3    1   73 1    
     4    1   74 1    
     5    2    3 2    
     6    2    4 am   BACKBONE|DICT|INTERRES
     7    4    5 1    
     8    4   75 1    
     9    5    6 1    
    10    5   35 1    
    11    5   76 1    
    12    6    7 1    
    13    6   77 1    
    14    6   78 1    
    15    7    8 1    
    16    8    9 1    
    17    8   79 1    
    18    8   80 1    
    19    9   10 ar   
    20    9   14 ar   
    21   10   11 ar   
    22   10   81 1    
    23   11   12 ar   
    24   11   71 1    
    25   12   13 ar   
    26   12   82 1    
    27   13   14 ar   
    28   13   15 1    
    29   14   83 1    
    30   15   16 1    
    31   15   84 1    
    32   15   85 1    
    33   16   17 1    
    34   17   18 1    
    35   17   86 1    
    36   17   87 1    
    37   18   19 1    
    38   18   37 1    
    39   18   88 1    
    40   19   20 am   BACKBONE|DICT|INTERRES
    41   19   89 1    
    42   20   21 2    
    43   20   22 1    
    44   22   23 1    
    45   22   24 1    
    46   22   90 1    
    47   23   91 1    
    48   23   92 1    
    49   23   93 1    
    50   24   25 am   BACKBONE|DICT|INTERRES
    51   24   94 1    
    52   25   26 2    
    53   25   27 1    
    54   27   28 1    
    55   27   29 1    
    56   27   95 1    
    57   28   96 1    
    58   28   97 1    
    59   28   98 1    
    60   29   30 am   BACKBONE|DICT|INTERRES
    61   29   99 1    
    62   30   31 2    
    63   30   32 1    
    64   32   33 1    
    65   32   34 1    
    66   32  100 1    
    67   33  101 1    
    68   33  102 1    
    69   33  103 1    
    70   34   35 am   BACKBONE|DICT|INTERRES
    71   34  104 1    
    72   35   36 2    
    73   37   38 2    
    74   37   39 am   BACKBONE|DICT|INTERRES
    75   39   40 1    
    76   39  105 1    
    77   40   41 1    
    78   40   42 1    
    79   40  106 1    
    80   41  107 1    
    81   41  108 1    
    82   41  109 1    
    83   42   43 2    
    84   42   44 am   BACKBONE|DICT|INTERRES
    85   44   45 1    
    86   44  110 1    
    87   45   46 1    
    88   45   47 1    
    89   45  111 1    
    90   46  112 1    
    91   46  113 1    
    92   46  114 1    
    93   47   48 2    
    94   47   49 am   BACKBONE|DICT|INTERRES
    95   49   50 1    
    96   49  115 1    
    97   50   51 1    
    98   50   52 1    
    99   50  116 1    
   100   51  117 1    
   101   51  118 1    
   102   51  119 1    
   103   52   53 2    
   104   52   54 am   BACKBONE|DICT|INTERRES
   105   54   55 1    
   106   54  120 1    
   107   55   56 1    
   108   55   57 1    
   109   55  121 1    
   110   56  122 1    
   111   56  123 1    
   112   56  124 1    
   113   57   58 2    
   114   57   59 am   BACKBONE|DICT|INTERRES
   115   59   60 1    
   116   59  125 1    
   117   60   61 1    
   118   60   62 1    
   119   60  126 1    
   120   61  127 1    
   121   61  128 1    
   122   61  129 1    
   123   62   63 2    
   124   62   64 am   BACKBONE|DICT|INTERRES
   125   64   65 1    
   126   64  130 1    
   127   65   66 1    
   128   65   69 1    
   129   65  131 1    
   130   66   67 am   BACKBONE|DICT|INTERRES
   131   66   68 2    
   132   67  132 1    
   133   67  133 1    
   134   69   70 1    
   135   69  134 1    
   136   69  135 1    
   137   70   71 1    
   138   71  136 1    
   139   71  137 1    
@<TRIPOS>SUBSTRUCTURE
     1 UNK         1 GROUP             0       ****    0 ROOT    
