@<TRIPOS>MOLECULE
3R137
137   139    1
SMALL
USER_CHARGES


@<TRIPOS>ATOM
      1 CA         28.8951    0.1434   -2.6512 C.3       0 UNK        -0.2020 
      2 C          28.9103   -0.0555   -1.1398 C.2       0 UNK         0.4855 
      3 O          29.1652    0.8973   -0.4068 O.2       0 UNK        -0.5197 
      4 N          28.6478   -1.2635   -0.6219 N.am      1 UNK        -0.4892 
      5 CA         28.2934   -2.4909   -1.3547 C.3       1 UNK         0.0835 
      6 C6         28.6160   -3.7590   -0.5282 C.3       12 UNK        -0.0855 
      7 S7         30.3766   -3.8615   -0.0523 S.3       12 UNK        -0.2931 
      8 C8         30.9888   -5.2024   -1.1202 C.3       12 UNK         0.0378 
      9 C9         31.4172   -4.7023   -2.4937 C.ar      12 UNK        -0.0802 
     10 C10        32.7494   -4.3468   -2.7194 C.ar      12 UNK        -0.0944 
     11 C11        33.1860   -3.9839   -3.9967 C.ar      12 UNK        -0.0787 
     12 C12        32.2625   -3.9390   -5.0480 C.ar      12 UNK        -0.0862 
     13 C13        30.9182   -4.2747   -4.8377 C.ar      12 UNK        -0.0733 
     14 C14        30.5078   -4.6637   -3.5544 C.ar      12 UNK        -0.0832 
     15 C15        29.9627   -4.3066   -6.0337 C.3       12 UNK         0.0240 
     16 S16        28.1973   -4.0546   -5.6263 S.3       12 UNK        -0.2522 
     17 C17        28.0831   -2.2398   -5.5328 C.3       12 UNK        -0.0967 
     18 CA         27.1830   -1.6789   -6.6594 C.3       5 UNK         0.0660 
     19 N          25.7682   -1.9708   -6.4392 N.am      5 UNK        -0.4015 
     20 C          24.8748   -2.1503   -7.4207 C.2       4 UNK         0.4946 
     21 O          25.1635   -2.1961   -8.6172 O.2       4 UNK        -0.5353 
     22 CA         23.3993   -2.2821   -7.0030 C.3       4 UNK         0.0277 
     23 CB         23.0475   -3.7532   -6.7287 C.3       4 UNK        -0.1981 
     24 N          23.0423   -1.4707   -5.8355 N.am      4 UNK        -0.4209 
     25 C          23.1273   -0.1338   -5.7730 C.2       3 UNK         0.4942 
     26 O          23.5154    0.5777   -6.6986 O.2       3 UNK        -0.5208 
     27 CA         22.7571    0.5211   -4.4332 C.3       3 UNK         0.0250 
     28 CB         21.2453    0.7911   -4.3709 C.3       3 UNK        -0.1990 
     29 N          23.1690   -0.2362   -3.2450 N.am      3 UNK        -0.4232 
     30 C          24.4120   -0.6569   -2.9668 C.2       2 UNK         0.4993 
     31 O          25.3690   -0.5241   -3.7374 O.2       2 UNK        -0.5286 
     32 CA         24.5937   -1.3133   -1.5842 C.3       2 UNK         0.0209 
     33 CB         23.7148   -2.5738   -1.4225 C.3       2 UNK        -0.1931 
     34 N          25.9995   -1.5920   -1.2580 N.am      2 UNK        -0.4546 
     35 C          26.8143   -2.5093   -1.8032 C.2       1 UNK         0.5154 
     36 O          26.4533   -3.3490   -2.6268 O.2       1 UNK        -0.5181 
     37 C          27.3745   -0.1648   -6.8289 C.2       5 UNK         0.5014 
     38 O          28.0058    0.2504   -7.8013 O.2       5 UNK        -0.5248 
     39 N          26.8345    0.6371   -5.8974 N.am      6 UNK        -0.4434 
     40 CA         27.0342    2.0901   -5.8296 C.3       6 UNK         0.0363 
     41 CB         26.3152    2.6596   -4.5985 C.3       6 UNK        -0.1936 
     42 C          26.6210    2.8524   -7.1011 C.2       6 UNK         0.5081 
     43 O          27.3278    3.7793   -7.4974 O.2       6 UNK        -0.5248 
     44 N          25.5359    2.4177   -7.7590 N.am      7 UNK        -0.4718 
     45 CA         25.0669    2.9602   -9.0410 C.3       7 UNK         0.0273 
     46 CB         23.6976    2.3501   -9.3797 C.3       7 UNK        -0.1935 
     47 C          26.0469    2.7538  -10.2135 C.2       7 UNK         0.5018 
     48 O          25.9794    3.5044  -11.1874 O.2       7 UNK        -0.5186 
     49 N          26.9406    1.7628  -10.0981 N.am      8 UNK        -0.4240 
     50 CA         28.0053    1.4601  -11.0561 C.3       8 UNK         0.0235 
     51 CB         28.0061   -0.0582  -11.3140 C.3       8 UNK        -0.2000 
     52 C          29.3838    1.9395  -10.5581 C.2       8 UNK         0.4941 
     53 O          30.3933    1.5554  -11.1495 O.2       8 UNK        -0.5273 
     54 N          29.4152    2.7376   -9.4764 N.am      9 UNK        -0.4262 
     55 CA         30.6010    3.2179   -8.7499 C.3       9 UNK         0.0264 
     56 CB         31.5000    4.0972   -9.6453 C.3       9 UNK        -0.1955 
     57 C          31.3867    2.1013   -8.0292 C.2       9 UNK         0.5031 
     58 O          32.5538    2.3055   -7.6832 O.2       9 UNK        -0.5390 
     59 N          30.7194    0.9637   -7.7811 N.am      10 UNK        -0.4204 
     60 CA         31.1688   -0.2258   -7.0593 C.3       10 UNK         0.0237 
     61 CB         31.1973    0.0638   -5.5426 C.3       10 UNK        -0.1985 
     62 C          32.4820   -0.8001   -7.6084 C.2       10 UNK         0.4970 
     63 O          32.4604   -1.5422   -8.5908 O.2       10 UNK        -0.4914 
     64 N          33.5834   -0.4489   -6.9493 N.am      11 UNK        -0.4285 
     65 CA         34.9542   -0.8563   -7.2523 C.3       11 UNK         0.1007 
     66 C          35.9560    0.3288   -7.1362 C.2       11 UNK         0.5703 
     67 N          35.5004    1.5787   -7.1473 N.am      11 UNK        -0.7361 
     68 O          37.1648    0.1213   -7.0593 O.2       11 UNK        -0.4986 
     69 C69        35.3547   -2.1292   -6.4568 C.3       12 UNK        -0.0947 
     70 S70        35.0628   -2.0087   -4.6539 S.3       12 UNK        -0.2240 
     71 C71        34.6722   -3.7384   -4.2411 C.3       12 UNK         0.0194 
     72 H72        29.5773   -0.5525   -3.1361 H         1 UNK         0.0906 
     73 H73        27.8935    0.0023   -3.0526 H         1 UNK         0.0906 
     74 H74        29.2149    1.1533   -2.9072 H         1 UNK         0.0906 
     75 H75        28.7086   -1.3740    0.3808 H         1 UNK         0.3140 
     76 H76        28.8927   -2.5440   -2.2648 H         1 UNK         0.1085 
     77 H77        28.0203   -3.7783    0.3866 H         1 UNK         0.0836 
     78 H78        28.3382   -4.6587   -1.0807 H         1 UNK         0.0836 
     79 H79        30.2370   -5.9873   -1.2150 H         1 UNK         0.0731 
     80 H80        31.8391   -5.6720   -0.6231 H         1 UNK         0.0731 
     81 H81        33.4582   -4.3984   -1.9040 H         1 UNK         0.1312 
     82 H82        32.6013   -3.6767   -6.0408 H         1 UNK         0.1406 
     83 H83        29.4856   -4.9692   -3.3801 H         1 UNK         0.1631 
     84 H84        30.0599   -5.2831   -6.5096 H         1 UNK         0.0717 
     85 H85        30.2640   -3.5732   -6.7835 H         1 UNK         0.0717 
     86 H86        27.6894   -1.9632   -4.5558 H         1 UNK         0.0934 
     87 H87        29.0887   -1.8252   -5.5746 H         1 UNK         0.0934 
     88 H88        27.5021   -2.1392   -7.5977 H         1 UNK         0.0739 
     89 H89        25.4416   -1.9136   -5.4827 H         1 UNK         0.3093 
     90 H90        22.7918   -1.9339   -7.8412 H         1 UNK         0.0818 
     91 H91        23.2827   -4.3773   -7.5922 H         1 UNK         0.0819 
     92 H92        23.6041   -4.1508   -5.8789 H         1 UNK         0.0819 
     93 H93        21.9841   -3.8766   -6.5231 H         1 UNK         0.0819 
     94 H94        22.7176   -1.9648   -5.0172 H         1 UNK         0.3041 
     95 H95        23.2669    1.4837   -4.3919 H         1 UNK         0.0784 
     96 H96        20.9162    1.3694   -5.2357 H         1 UNK         0.0793 
     97 H97        20.6681   -0.1344   -4.3592 H         1 UNK         0.0793 
     98 H98        20.9798    1.3646   -3.4825 H         1 UNK         0.0793 
     99 H99        22.4495   -0.3903   -2.5532 H         1 UNK         0.3024 
    100 H100       24.2634   -0.5782   -0.8481 H         1 UNK         0.1171 
    101 H101       23.9091   -3.0727   -0.4729 H         1 UNK         0.0786 
    102 H102       22.6537   -2.3240   -1.4377 H         1 UNK         0.0786 
    103 H103       23.8848   -3.2976   -2.2202 H         1 UNK         0.0786 
    104 H104       26.4238   -0.9497   -0.6030 H         1 UNK         0.2977 
    105 H105       26.2966    0.2196   -5.1390 H         1 UNK         0.3127 
    106 H106       28.1059    2.2516   -5.6944 H         1 UNK         0.0770 
    107 H107       25.2349    2.5560   -4.6837 H         1 UNK         0.0814 
    108 H108       26.5303    3.7224   -4.4801 H         1 UNK         0.0814 
    109 H109       26.6305    2.1612   -3.6819 H         1 UNK         0.0814 
    110 H110       24.9851    1.6613   -7.3584 H         1 UNK         0.2983 
    111 H111       24.9396    4.0378   -8.9168 H         1 UNK         0.0947 
    112 H112       23.3118    2.7457  -10.3203 H         1 UNK         0.0806 
    113 H113       22.9614    2.5764   -8.6081 H         1 UNK         0.0806 
    114 H114       23.7551    1.2651   -9.4788 H         1 UNK         0.0806 
    115 H115       26.9547    1.2167   -9.2421 H         1 UNK         0.3000 
    116 H116       27.8156    1.9658  -12.0050 H         1 UNK         0.0850 
    117 H117       28.7388   -0.3290  -12.0752 H         1 UNK         0.0810 
    118 H118       27.0334   -0.4003  -11.6681 H         1 UNK         0.0810 
    119 H119       28.2495   -0.6204  -10.4115 H         1 UNK         0.0810 
    120 H120       28.5299    3.0018   -9.0565 H         1 UNK         0.3040 
    121 H121       30.2136    3.8577   -7.9556 H         1 UNK         0.0766 
    122 H122       32.0051    3.5123  -10.4143 H         1 UNK         0.0812 
    123 H123       32.2746    4.5895   -9.0561 H         1 UNK         0.0812 
    124 H124       30.9249    4.8798  -10.1398 H         1 UNK         0.0812 
    125 H125       29.7549    0.9062   -8.0990 H         1 UNK         0.3205 
    126 H126       30.4152   -0.9911   -7.2427 H         1 UNK         0.0754 
    127 H127       31.4830   -0.8231   -4.9743 H         1 UNK         0.0769 
    128 H128       30.2111    0.3723   -5.1995 H         1 UNK         0.0769 
    129 H129       31.8891    0.8655   -5.2822 H         1 UNK         0.0769 
    130 H130       33.4931    0.1902   -6.1731 H         1 UNK         0.2981 
    131 H131       35.0004   -1.1191   -8.3106 H         1 UNK         0.0541 
    132 H132       34.5149    1.7761   -7.2887 H         1 UNK         0.3459 
    133 H133       36.1571    2.3396   -7.0790 H         1 UNK         0.3459 
    134 H134       36.4009   -2.3882   -6.6275 H         1 UNK         0.0612 
    135 H135       34.7804   -2.9700   -6.8471 H         1 UNK         0.0612 
    136 H136       35.2483   -4.0030   -3.3532 H         1 UNK         0.0624 
    137 H137       35.0258   -4.4072   -5.0269 H         1 UNK         0.0624 
@<TRIPOS>BOND
     1    1    2 1    
     2    1   72 1    
     3    1   73 1    
     4    1   74 1    
     5    2    3 2    
     6    2    4 am   BACKBONE|DICT|INTERRES
     7    4    5 1    
     8    4   75 1    
     9    5    6 1    
    10    5   35 1    
    11    5   76 1    
    12    6    7 1    
    13    6   77 1    
    14    6   78 1    
    15    7    8 1    
    16    8    9 1    
    17    8   79 1    
    18    8   80 1    
    19    9   10 ar   
    20    9   14 ar   
    21   10   11 ar   
    22   10   81 1    
    23   11   12 ar   
    24   11   71 1    
    25   12   13 ar   
    26   12   82 1    
    27   13   14 ar   
    28   13   15 1    
    29   14   83 1    
    30   15   16 1    
    31   15   84 1    
    32   15   85 1    
    33   16   17 1    
    34   17   18 1    
    35   17   86 1    
    36   17   87 1    
    37   18   19 1    
    38   18   37 1    
    39   18   88 1    
    40   19   20 am   BACKBONE|DICT|INTERRES
    41   19   89 1    
    42   20   21 2    
    43   20   22 1    
    44   22   23 1    
    45   22   24 1    
    46   22   90 1    
    47   23   91 1    
    48   23   92 1    
    49   23   93 1    
    50   24   25 am   BACKBONE|DICT|INTERRES
    51   24   94 1    
    52   25   26 2    
    53   25   27 1    
    54   27   28 1    
    55   27   29 1    
    56   27   95 1    
    57   28   96 1    
    58   28   97 1    
    59   28   98 1    
    60   29   30 am   BACKBONE|DICT|INTERRES
    61   29   99 1    
    62   30   31 2    
    63   30   32 1    
    64   32   33 1    
    65   32   34 1    
    66   32  100 1    
    67   33  101 1    
    68   33  102 1    
    69   33  103 1    
    70   34   35 am   BACKBONE|DICT|INTERRES
    71   34  104 1    
    72   35   36 2    
    73   37   38 2    
    74   37   39 am   BACKBONE|DICT|INTERRES
    75   39   40 1    
    76   39  105 1    
    77   40   41 1    
    78   40   42 1    
    79   40  106 1    
    80   41  107 1    
    81   41  108 1    
    82   41  109 1    
    83   42   43 2    
    84   42   44 am   BACKBONE|DICT|INTERRES
    85   44   45 1    
    86   44  110 1    
    87   45   46 1    
    88   45   47 1    
    89   45  111 1    
    90   46  112 1    
    91   46  113 1    
    92   46  114 1    
    93   47   48 2    
    94   47   49 am   BACKBONE|DICT|INTERRES
    95   49   50 1    
    96   49  115 1    
    97   50   51 1    
    98   50   52 1    
    99   50  116 1    
   100   51  117 1    
   101   51  118 1    
   102   51  119 1    
   103   52   53 2    
   104   52   54 am   BACKBONE|DICT|INTERRES
   105   54   55 1    
   106   54  120 1    
   107   55   56 1    
   108   55   57 1    
   109   55  121 1    
   110   56  122 1    
   111   56  123 1    
   112   56  124 1    
   113   57   58 2    
   114   57   59 am   BACKBONE|DICT|INTERRES
   115   59   60 1    
   116   59  125 1    
   117   60   61 1    
   118   60   62 1    
   119   60  126 1    
   120   61  127 1    
   121   61  128 1    
   122   61  129 1    
   123   62   63 2    
   124   62   64 am   BACKBONE|DICT|INTERRES
   125   64   65 1    
   126   64  130 1    
   127   65   66 1    
   128   65   69 1    
   129   65  131 1    
   130   66   67 am   BACKBONE|DICT|INTERRES
   131   66   68 2    
   132   67  132 1    
   133   67  133 1    
   134   69   70 1    
   135   69  134 1    
   136   69  135 1    
   137   70   71 1    
   138   71  136 1    
   139   71  137 1    
@<TRIPOS>SUBSTRUCTURE
     1 UNK         1 GROUP             0       ****    0 ROOT    
