@<TRIPOS>MOLECULE
3R137
137   139    1
SMALL
USER_CHARGES


@<TRIPOS>ATOM
      1 CA         25.5836   -6.1439    1.8480 C.3       0 UNK        -0.2020 
      2 C          26.0690   -4.7253    1.5898 C.2       0 UNK         0.4855 
      3 O          26.0789   -3.9063    2.5089 O.2       0 UNK        -0.5197 
      4 N          26.4761   -4.4310    0.3473 N.am      1 UNK        -0.4892 
      5 CA         26.9436   -3.1102   -0.0927 C.3       1 UNK         0.0835 
      6 C6         27.6423   -3.2053   -1.4730 C.3       12 UNK        -0.0855 
      7 S7         28.5103   -1.6743   -1.9729 S.3       12 UNK        -0.2931 
      8 C8         30.2659   -2.1772   -1.9399 C.3       12 UNK         0.0378 
      9 C9         30.7626   -2.7001   -3.2859 C.ar      12 UNK        -0.0802 
     10 C10        31.9096   -2.1547   -3.8751 C.ar      12 UNK        -0.0944 
     11 C11        32.3951   -2.6564   -5.0876 C.ar      12 UNK        -0.0787 
     12 C12        31.7045   -3.6893   -5.7319 C.ar      12 UNK        -0.0862 
     13 C13        30.5600   -4.2456   -5.1530 C.ar      12 UNK        -0.0733 
     14 C14        30.1080   -3.7565   -3.9260 C.ar      12 UNK        -0.0832 
     15 C15        29.8385   -5.4128   -5.8155 C.3       12 UNK         0.0240 
     16 S16        28.7021   -4.8941   -7.1417 S.3       12 UNK        -0.2522 
     17 C17        27.4284   -3.9307   -6.2485 C.3       12 UNK        -0.0967 
     18 CA         27.0394   -2.6316   -6.9953 C.3       5 UNK         0.0660 
     19 N          25.8307   -2.0105   -6.4437 N.am      5 UNK        -0.4015 
     20 C          25.1364   -1.0491   -7.0699 C.2       4 UNK         0.4946 
     21 O          25.4346   -0.5961   -8.1752 O.2       4 UNK        -0.5353 
     22 CA         23.9162   -0.4742   -6.3340 C.3       4 UNK         0.0277 
     23 CB         22.7185   -1.4324   -6.4346 C.3       4 UNK        -0.1981 
     24 N          24.1490   -0.1267   -4.9286 N.am      4 UNK        -0.4209 
     25 C          25.1005    0.6906   -4.4609 C.2       3 UNK         0.4942 
     26 O          26.0085    1.1443   -5.1551 O.2       3 UNK        -0.5208 
     27 CA         25.0323    1.1047   -2.9788 C.3       3 UNK         0.0250 
     28 CB         24.1452    2.3529   -2.8132 C.3       3 UNK        -0.1990 
     29 N          24.6466    0.0586   -2.0200 N.am      3 UNK        -0.4232 
     30 C          23.5092   -0.6424   -1.9082 C.2       2 UNK         0.4993 
     31 O          22.5672   -0.5423   -2.6965 O.2       2 UNK        -0.5286 
     32 CA         23.4224   -1.6376   -0.7285 C.3       2 UNK         0.0209 
     33 CB         22.1879   -2.5549   -0.8187 C.3       2 UNK        -0.1931 
     34 N          24.6207   -2.4747   -0.5906 N.am      2 UNK        -0.4546 
     35 C          25.8015   -2.0728   -0.0983 C.2       1 UNK         0.5154 
     36 O          26.0038   -0.9319    0.3213 O.2       1 UNK        -0.5181 
     37 C          28.2017   -1.6228   -7.0896 C.2       5 UNK         0.5014 
     38 O          28.8347   -1.5385   -8.1422 O.2       5 UNK        -0.5248 
     39 N          28.4213   -0.8371   -6.0238 N.am      6 UNK        -0.4434 
     40 CA         29.4337    0.2201   -5.9870 C.3       6 UNK         0.0363 
     41 CB         29.5355    0.8182   -4.5757 C.3       6 UNK        -0.1936 
     42 C          29.1803    1.3256   -7.0216 C.2       6 UNK         0.5081 
     43 O          30.1313    1.7847   -7.6508 O.2       6 UNK        -0.5248 
     44 N          27.9110    1.7117   -7.2033 N.am      7 UNK        -0.4718 
     45 CA         27.4734    2.6612   -8.2262 C.3       7 UNK         0.0273 
     46 CB         26.0014    3.0355   -7.9893 C.3       7 UNK        -0.1935 
     47 C          27.6859    2.1291   -9.6531 C.2       7 UNK         0.5018 
     48 O          28.2089    2.8614  -10.4933 O.2       7 UNK        -0.5186 
     49 N          27.3016    0.8670   -9.8958 N.am      8 UNK        -0.4240 
     50 CA         27.4498    0.1871  -11.1856 C.3       8 UNK         0.0235 
     51 CB         26.6737   -1.1398  -11.1660 C.3       8 UNK        -0.2000 
     52 C          28.9163   -0.0492  -11.5822 C.2       8 UNK         0.4941 
     53 O          29.2796    0.2095  -12.7302 O.2       8 UNK        -0.5273 
     54 N          29.7309   -0.5288  -10.6331 N.am      9 UNK        -0.4262 
     55 CA         31.1551   -0.8136  -10.8306 C.3       9 UNK         0.0264 
     56 CB         31.5901   -1.8848   -9.8181 C.3       9 UNK        -0.1955 
     57 C          32.0585    0.4324  -10.7437 C.2       9 UNK         0.5031 
     58 O          33.2356    0.3309  -11.0934 O.2       9 UNK        -0.5390 
     59 N          31.5068    1.5690  -10.2909 N.am      10 UNK        -0.4204 
     60 CA         32.1679    2.8597  -10.0580 C.3       10 UNK         0.0237 
     61 CB         32.6766    3.4755  -11.3793 C.3       10 UNK        -0.1985 
     62 C          33.2504    2.7728   -8.9635 C.2       10 UNK         0.4970 
     63 O          34.3658    3.2645   -9.1476 O.2       10 UNK        -0.4914 
     64 N          32.8885    2.1423   -7.8410 N.am      11 UNK        -0.4285 
     65 CA         33.7394    1.9531   -6.6553 C.3       11 UNK         0.1007 
     66 C          33.7971    3.1923   -5.7166 C.2       11 UNK         0.5703 
     67 N          32.9650    4.2108   -5.9024 N.am      11 UNK        -0.7361 
     68 O          34.6225    3.2349   -4.8073 O.2       11 UNK        -0.4986 
     69 C69        33.3491    0.6745   -5.8659 C.3       12 UNK        -0.0947 
     70 S70        33.4394   -0.8233   -6.9013 S.3       12 UNK        -0.2240 
     71 C71        33.7012   -2.1345   -5.6713 C.3       12 UNK         0.0194 
     72 H72        26.1908   -6.6130    2.6217 H         1 UNK         0.0906 
     73 H73        24.5488   -6.1296    2.1891 H         1 UNK         0.0906 
     74 H74        25.6369   -6.7641    0.9534 H         1 UNK         0.0906 
     75 H75        26.4554   -5.1529   -0.3596 H         1 UNK         0.3140 
     76 H76        27.6825   -2.7674    0.6356 H         1 UNK         0.1085 
     77 H77        28.3610   -4.0246   -1.4414 H         1 UNK         0.0836 
     78 H78        26.9267   -3.4665   -2.2550 H         1 UNK         0.0836 
     79 H79        30.8519   -1.3075   -1.6389 H         1 UNK         0.0731 
     80 H80        30.4310   -2.9310   -1.1691 H         1 UNK         0.0731 
     81 H81        32.4429   -1.3555   -3.3788 H         1 UNK         0.1312 
     82 H82        32.0727   -4.0783   -6.6715 H         1 UNK         0.1406 
     83 H83        29.2397   -4.2067   -3.4715 H         1 UNK         0.1631 
     84 H84        29.2823   -5.9914   -5.0762 H         1 UNK         0.0717 
     85 H85        30.5753   -6.0974   -6.2384 H         1 UNK         0.0717 
     86 H86        26.5530   -4.5744   -6.1487 H         1 UNK         0.0934 
     87 H87        27.7472   -3.7060   -5.2321 H         1 UNK         0.0934 
     88 H88        26.7931   -2.9169   -8.0210 H         1 UNK         0.0739 
     89 H89        25.5205   -2.3189   -5.5345 H         1 UNK         0.3093 
     90 H90        23.6467    0.4528   -6.8442 H         1 UNK         0.0818 
     91 H91        21.8128   -0.9765   -6.0340 H         1 UNK         0.0819 
     92 H92        22.5141   -1.6965   -7.4733 H         1 UNK         0.0819 
     93 H93        22.8939   -2.3603   -5.8889 H         1 UNK         0.0819 
     94 H94        23.4364   -0.4122   -4.2581 H         1 UNK         0.3041 
     95 H95        26.0485    1.3880   -2.6986 H         1 UNK         0.0784 
     96 H96        24.4806    3.1595   -3.4669 H         1 UNK         0.0793 
     97 H97        23.1031    2.1473   -3.0605 H         1 UNK         0.0793 
     98 H98        24.1790    2.7301   -1.7911 H         1 UNK         0.0793 
     99 H99        25.3427   -0.1327   -1.3037 H         1 UNK         0.3024 
    100 H100       23.3194   -1.0341    0.1766 H         1 UNK         0.1171 
    101 H101       21.2666   -1.9714   -0.8508 H         1 UNK         0.0786 
    102 H102       22.1184   -3.2139    0.0470 H         1 UNK         0.0786 
    103 H103       22.2118   -3.1767   -1.7145 H         1 UNK         0.0786 
    104 H104       24.5441   -3.4263   -0.9191 H         1 UNK         0.2977 
    105 H105       27.8313   -0.9298   -5.2106 H         1 UNK         0.3127 
    106 H106       30.3901   -0.2446   -6.2343 H         1 UNK         0.0770 
    107 H107       28.5710    1.1739   -4.2128 H         1 UNK         0.0814 
    108 H108       30.2223    1.6655   -4.5561 H         1 UNK         0.0814 
    109 H109       29.9148    0.0860   -3.8659 H         1 UNK         0.0814 
    110 H110       27.1939    1.3310   -6.5887 H         1 UNK         0.2983 
    111 H111       28.0758    3.5660   -8.1184 H         1 UNK         0.0947 
    112 H112       25.6585    3.7605   -8.7285 H         1 UNK         0.0806 
    113 H113       25.8611    3.4828   -7.0050 H         1 UNK         0.0806 
    114 H114       25.3468    2.1659   -8.0548 H         1 UNK         0.0806 
    115 H115       26.8410    0.3440   -9.1547 H         1 UNK         0.3000 
    116 H116       27.0025    0.8277  -11.9488 H         1 UNK         0.0850 
    117 H117       26.7626   -1.6603  -12.1205 H         1 UNK         0.0810 
    118 H118       25.6117   -0.9740  -10.9845 H         1 UNK         0.0810 
    119 H119       27.0429   -1.8116  -10.3901 H         1 UNK         0.0810 
    120 H120       29.3446   -0.7639   -9.7180 H         1 UNK         0.3040 
    121 H121       31.2903   -1.2308  -11.8308 H         1 UNK         0.0766 
    122 H122       32.6526   -2.1135   -9.9113 H         1 UNK         0.0812 
    123 H123       31.0418   -2.8153   -9.9656 H         1 UNK         0.0812 
    124 H124       31.4128   -1.5580   -8.7940 H         1 UNK         0.0812 
    125 H125       30.5442    1.5213   -9.9819 H         1 UNK         0.3205 
    126 H126       31.3955    3.5236   -9.6666 H         1 UNK         0.0754 
    127 H127       33.0507    4.4872  -11.2185 H         1 UNK         0.0769 
    128 H128       31.8781    3.5391  -12.1186 H         1 UNK         0.0769 
    129 H129       33.4907    2.8945  -11.8135 H         1 UNK         0.0769 
    130 H130       31.9237    1.8264   -7.7588 H         1 UNK         0.2981 
    131 H131       34.7626    1.8089   -7.0074 H         1 UNK         0.0541 
    132 H132       32.2813    4.1822   -6.6413 H         1 UNK         0.3459 
    133 H133       33.0177    5.0100   -5.2909 H         1 UNK         0.3459 
    134 H134       32.3429    0.7625   -5.4582 H         1 UNK         0.0612 
    135 H135       34.0154    0.5426   -5.0118 H         1 UNK         0.0612 
    136 H136       34.3637   -1.7809   -4.8800 H         1 UNK         0.0624 
    137 H137       34.2312   -2.9553   -6.1567 H         1 UNK         0.0624 
@<TRIPOS>BOND
     1    1    2 1    
     2    1   72 1    
     3    1   73 1    
     4    1   74 1    
     5    2    3 2    
     6    2    4 am   BACKBONE|DICT|INTERRES
     7    4    5 1    
     8    4   75 1    
     9    5    6 1    
    10    5   35 1    
    11    5   76 1    
    12    6    7 1    
    13    6   77 1    
    14    6   78 1    
    15    7    8 1    
    16    8    9 1    
    17    8   79 1    
    18    8   80 1    
    19    9   10 ar   
    20    9   14 ar   
    21   10   11 ar   
    22   10   81 1    
    23   11   12 ar   
    24   11   71 1    
    25   12   13 ar   
    26   12   82 1    
    27   13   14 ar   
    28   13   15 1    
    29   14   83 1    
    30   15   16 1    
    31   15   84 1    
    32   15   85 1    
    33   16   17 1    
    34   17   18 1    
    35   17   86 1    
    36   17   87 1    
    37   18   19 1    
    38   18   37 1    
    39   18   88 1    
    40   19   20 am   BACKBONE|DICT|INTERRES
    41   19   89 1    
    42   20   21 2    
    43   20   22 1    
    44   22   23 1    
    45   22   24 1    
    46   22   90 1    
    47   23   91 1    
    48   23   92 1    
    49   23   93 1    
    50   24   25 am   BACKBONE|DICT|INTERRES
    51   24   94 1    
    52   25   26 2    
    53   25   27 1    
    54   27   28 1    
    55   27   29 1    
    56   27   95 1    
    57   28   96 1    
    58   28   97 1    
    59   28   98 1    
    60   29   30 am   BACKBONE|DICT|INTERRES
    61   29   99 1    
    62   30   31 2    
    63   30   32 1    
    64   32   33 1    
    65   32   34 1    
    66   32  100 1    
    67   33  101 1    
    68   33  102 1    
    69   33  103 1    
    70   34   35 am   BACKBONE|DICT|INTERRES
    71   34  104 1    
    72   35   36 2    
    73   37   38 2    
    74   37   39 am   BACKBONE|DICT|INTERRES
    75   39   40 1    
    76   39  105 1    
    77   40   41 1    
    78   40   42 1    
    79   40  106 1    
    80   41  107 1    
    81   41  108 1    
    82   41  109 1    
    83   42   43 2    
    84   42   44 am   BACKBONE|DICT|INTERRES
    85   44   45 1    
    86   44  110 1    
    87   45   46 1    
    88   45   47 1    
    89   45  111 1    
    90   46  112 1    
    91   46  113 1    
    92   46  114 1    
    93   47   48 2    
    94   47   49 am   BACKBONE|DICT|INTERRES
    95   49   50 1    
    96   49  115 1    
    97   50   51 1    
    98   50   52 1    
    99   50  116 1    
   100   51  117 1    
   101   51  118 1    
   102   51  119 1    
   103   52   53 2    
   104   52   54 am   BACKBONE|DICT|INTERRES
   105   54   55 1    
   106   54  120 1    
   107   55   56 1    
   108   55   57 1    
   109   55  121 1    
   110   56  122 1    
   111   56  123 1    
   112   56  124 1    
   113   57   58 2    
   114   57   59 am   BACKBONE|DICT|INTERRES
   115   59   60 1    
   116   59  125 1    
   117   60   61 1    
   118   60   62 1    
   119   60  126 1    
   120   61  127 1    
   121   61  128 1    
   122   61  129 1    
   123   62   63 2    
   124   62   64 am   BACKBONE|DICT|INTERRES
   125   64   65 1    
   126   64  130 1    
   127   65   66 1    
   128   65   69 1    
   129   65  131 1    
   130   66   67 am   BACKBONE|DICT|INTERRES
   131   66   68 2    
   132   67  132 1    
   133   67  133 1    
   134   69   70 1    
   135   69  134 1    
   136   69  135 1    
   137   70   71 1    
   138   71  136 1    
   139   71  137 1    
@<TRIPOS>SUBSTRUCTURE
     1 UNK         1 GROUP             0       ****    0 ROOT    
