@<TRIPOS>MOLECULE
3R137
137   139    1
SMALL
USER_CHARGES


@<TRIPOS>ATOM
      1 CA         23.9152   -5.5645   -0.8971 C.3       0 UNK        -0.2020 
      2 C          25.0220   -6.2905   -1.6597 C.2       0 UNK         0.4855 
      3 O          24.8262   -7.4399   -2.0500 O.2       0 UNK        -0.5197 
      4 N          26.1983   -5.6876   -1.8848 N.am      1 UNK        -0.4892 
      5 CA         26.5753   -4.3064   -1.5581 C.3       1 UNK         0.0835 
      6 C6         28.0855   -4.0702   -1.7772 C.3       12 UNK        -0.0855 
      7 S7         29.0998   -4.8678   -0.4894 S.3       12 UNK        -0.2931 
      8 C8         30.7285   -4.9812   -1.3110 C.3       12 UNK         0.0378 
      9 C9         31.1614   -3.6971   -2.0169 C.ar      12 UNK        -0.0802 
     10 C10        31.7126   -3.7693   -3.3007 C.ar      12 UNK        -0.0944 
     11 C11        32.0930   -2.6090   -3.9811 C.ar      12 UNK        -0.0787 
     12 C12        31.9175   -1.3707   -3.3618 C.ar      12 UNK        -0.0862 
     13 C13        31.3540   -1.2747   -2.0883 C.ar      12 UNK        -0.0733 
     14 C14        31.0017   -2.4448   -1.4101 C.ar      12 UNK        -0.0832 
     15 C15        31.1205    0.0884   -1.4493 C.3       12 UNK         0.0240 
     16 S16        29.6600    0.9361   -2.1465 S.3       12 UNK        -0.2522 
     17 C17        30.3730    1.7772   -3.6082 C.3       12 UNK        -0.0967 
     18 CA         29.5951    1.5993   -4.9438 C.3       5 UNK         0.0660 
     19 N          28.9859    0.2797   -5.1263 N.am      5 UNK        -0.4015 
     20 C          29.2155   -0.5441   -6.1594 C.2       4 UNK         0.4946 
     21 O          30.0625   -0.3587   -7.0383 O.2       4 UNK        -0.5353 
     22 CA         28.2814   -1.7622   -6.2826 C.3       4 UNK         0.0277 
     23 CB         28.7176   -2.8768   -5.3202 C.3       4 UNK        -0.1981 
     24 N          26.8695   -1.4525   -6.0378 N.am      4 UNK        -0.4209 
     25 C          26.1713   -0.4296   -6.5545 C.2       3 UNK         0.4942 
     26 O          26.6211    0.3750   -7.3717 O.2       3 UNK        -0.5208 
     27 CA         24.7396   -0.2252   -6.0348 C.3       3 UNK         0.0250 
     28 CB         23.7355   -0.8855   -6.9923 C.3       3 UNK        -0.1990 
     29 N          24.4862   -0.7023   -4.6695 N.am      3 UNK        -0.4232 
     30 C          25.2084   -0.4565   -3.5647 C.2       2 UNK         0.4993 
     31 O          26.2708    0.1710   -3.5558 O.2       2 UNK        -0.5286 
     32 CA         24.6626   -1.0190   -2.2400 C.3       2 UNK         0.0209 
     33 CB         23.1694   -1.4197   -2.2905 C.3       2 UNK        -0.1931 
     34 N          25.4692   -2.1358   -1.7363 N.am      2 UNK        -0.4546 
     35 C          25.7624   -3.2801   -2.3725 C.2       1 UNK         0.5154 
     36 O          25.4355   -3.5361   -3.5344 O.2       1 UNK        -0.5181 
     37 C          28.5595    2.7229   -5.1315 C.2       5 UNK         0.5014 
     38 O          28.9046    3.7306   -5.7484 O.2       5 UNK        -0.5248 
     39 N          27.3248    2.5642   -4.6252 N.am      6 UNK        -0.4434 
     40 CA         26.3118    3.6314   -4.5904 C.3       6 UNK         0.0363 
     41 CB         25.1177    3.1996   -3.7246 C.3       6 UNK        -0.1936 
     42 C          25.8283    4.1082   -5.9719 C.2       6 UNK         0.5081 
     43 O          25.4629    5.2761   -6.1072 O.2       6 UNK        -0.5248 
     44 N          25.8538    3.2149   -6.9675 N.am      7 UNK        -0.4718 
     45 CA         25.5871    3.5148   -8.3767 C.3       7 UNK         0.0273 
     46 CB         24.4169    2.6372   -8.8563 C.3       7 UNK        -0.1935 
     47 C          26.8423    3.2820   -9.2387 C.2       7 UNK         0.5018 
     48 O          26.7418    3.3310  -10.4652 O.2       7 UNK        -0.5186 
     49 N          27.9877    3.0109   -8.5891 N.am      8 UNK        -0.4240 
     50 CA         29.2869    2.6408   -9.1612 C.3       8 UNK         0.0235 
     51 CB         29.9201    3.8563   -9.8711 C.3       8 UNK        -0.2000 
     52 C          29.2318    1.3858  -10.0579 C.2       8 UNK         0.4941 
     53 O          29.9995    1.2927  -11.0174 O.2       8 UNK        -0.5273 
     54 N          28.3304    0.4415   -9.7438 N.am      9 UNK        -0.4262 
     55 CA         28.0365   -0.7276  -10.5786 C.3       9 UNK         0.0264 
     56 CB         26.7321   -1.3885  -10.1036 C.3       9 UNK        -0.1955 
     57 C          29.1718   -1.7634  -10.6611 C.2       9 UNK         0.5031 
     58 O          29.1834   -2.5444  -11.6144 O.2       9 UNK        -0.5390 
     59 N          30.0919   -1.7642   -9.6871 N.am      10 UNK        -0.4204 
     60 CA         31.2541   -2.6563   -9.6578 C.3       10 UNK         0.0237 
     61 CB         30.9906   -3.8256   -8.6942 C.3       10 UNK        -0.1985 
     62 C          32.5501   -1.9148   -9.3028 C.2       10 UNK         0.4970 
     63 O          33.5859   -2.2148   -9.8974 O.2       10 UNK        -0.4914 
     64 N          32.4786   -0.9686   -8.3596 N.am      11 UNK        -0.4285 
     65 CA         33.6178   -0.1782   -7.8649 C.3       11 UNK         0.1007 
     66 C          33.6509    1.2705   -8.4330 C.2       11 UNK         0.5703 
     67 N          32.8204    1.6289   -9.4042 N.am      11 UNK        -0.7361 
     68 O          34.4659    2.0847   -8.0057 O.2       11 UNK        -0.4986 
     69 C69        33.6670   -0.2064   -6.3132 C.3       12 UNK        -0.0947 
     70 S70        34.2012   -1.8323   -5.6678 S.3       12 UNK        -0.2240 
     71 C71        32.6192   -2.6969   -5.4088 C.3       12 UNK         0.0194 
     72 H72        23.1671   -6.2767   -0.5492 H         1 UNK         0.0906 
     73 H73        24.2984   -5.0453   -0.0200 H         1 UNK         0.0906 
     74 H74        23.4114   -4.8457   -1.5427 H         1 UNK         0.0906 
     75 H75        26.9026   -6.2054   -2.3898 H         1 UNK         0.3140 
     76 H76        26.3585   -4.1416   -0.5007 H         1 UNK         0.1085 
     77 H77        28.3179   -3.0034   -1.7547 H         1 UNK         0.0836 
     78 H78        28.3938   -4.4304   -2.7606 H         1 UNK         0.0836 
     79 H79        30.6908   -5.8101   -2.0196 H         1 UNK         0.0731 
     80 H80        31.4813   -5.2460   -0.5676 H         1 UNK         0.0731 
     81 H81        31.8294   -4.7319   -3.7798 H         1 UNK         0.1312 
     82 H82        32.2136   -0.4785   -3.8820 H         1 UNK         0.1406 
     83 H83        30.5726   -2.3808   -0.4194 H         1 UNK         0.1631 
     84 H84        32.0080    0.7132   -1.5599 H         1 UNK         0.0717 
     85 H85        30.9683   -0.0250   -0.3749 H         1 UNK         0.0717 
     86 H86        30.4851    2.8345   -3.3569 H         1 UNK         0.0934 
     87 H87        31.3981    1.4479   -3.7546 H         1 UNK         0.0934 
     88 H88        30.3242    1.7549   -5.7425 H         1 UNK         0.0739 
     89 H89        28.2543    0.0354   -4.4689 H         1 UNK         0.3093 
     90 H90        28.3571   -2.1406   -7.3025 H         1 UNK         0.0818 
     91 H91        28.0542   -3.7400   -5.3791 H         1 UNK         0.0819 
     92 H92        28.7300   -2.5317   -4.2857 H         1 UNK         0.0819 
     93 H93        29.7198   -3.2304   -5.5551 H         1 UNK         0.0819 
     94 H94        26.3925   -2.0417   -5.3676 H         1 UNK         0.3041 
     95 H95        24.5492    0.8484   -6.0369 H         1 UNK         0.0784 
     96 H96        23.8953   -0.5586   -8.0206 H         1 UNK         0.0793 
     97 H97        23.8239   -1.9727   -6.9812 H         1 UNK         0.0793 
     98 H98        22.7087   -0.6287   -6.7308 H         1 UNK         0.0793 
     99 H99        23.6573   -1.2669   -4.5518 H         1 UNK         0.3024 
    100 H100       24.7601   -0.2084   -1.5154 H         1 UNK         0.1171 
    101 H101       22.8078   -1.6907   -1.2984 H         1 UNK         0.0786 
    102 H102       22.5484   -0.5919   -2.6367 H         1 UNK         0.0786 
    103 H103       22.9870   -2.2725   -2.9455 H         1 UNK         0.0786 
    104 H104       25.8379   -2.0026   -0.8044 H         1 UNK         0.2977 
    105 H105       27.0799    1.7006   -4.1432 H         1 UNK         0.3127 
    106 H106       26.7763    4.4918   -4.1037 H         1 UNK         0.0770 
    107 H107       24.5610    2.3818   -4.1802 H         1 UNK         0.0814 
    108 H108       24.4194    4.0266   -3.5888 H         1 UNK         0.0814 
    109 H109       25.4378    2.8809   -2.7325 H         1 UNK         0.0814 
    110 H110       26.1732    2.2704   -6.7794 H         1 UNK         0.2983 
    111 H111       25.3069    4.5626   -8.5033 H         1 UNK         0.0947 
    112 H112       24.1214    2.9010   -9.8725 H         1 UNK         0.0806 
    113 H113       23.5392    2.7616   -8.2220 H         1 UNK         0.0806 
    114 H114       24.6829    1.5803   -8.8610 H         1 UNK         0.0806 
    115 H115       27.9682    3.0724   -7.5789 H         1 UNK         0.3000 
    116 H116       29.9282    2.3769   -8.3186 H         1 UNK         0.0850 
    117 H117       30.9341    3.6377  -10.2053 H         1 UNK         0.0810 
    118 H118       29.9802    4.7161   -9.2039 H         1 UNK         0.0810 
    119 H119       29.3477    4.1527  -10.7506 H         1 UNK         0.0810 
    120 H120       27.7481    0.5690   -8.9191 H         1 UNK         0.3040 
    121 H121       27.8693   -0.3609  -11.5937 H         1 UNK         0.0766 
    122 H122       26.4290   -2.1835  -10.7862 H         1 UNK         0.0812 
    123 H123       25.9134   -0.6699  -10.0601 H         1 UNK         0.0812 
    124 H124       26.8400   -1.8363   -9.1168 H         1 UNK         0.0812 
    125 H125       30.0029   -1.0877   -8.9362 H         1 UNK         0.3205 
    126 H126       31.4198   -3.0787  -10.6514 H         1 UNK         0.0754 
    127 H127       30.7149   -3.4764   -7.7012 H         1 UNK         0.0769 
    128 H128       31.8730   -4.4586   -8.5898 H         1 UNK         0.0769 
    129 H129       30.1800   -4.4570   -9.0584 H         1 UNK         0.0769 
    130 H130       31.5923   -0.7673   -7.9025 H         1 UNK         0.2981 
    131 H131       34.5484   -0.6222   -8.2223 H         1 UNK         0.0541 
    132 H132       32.1698    0.9722   -9.8055 H         1 UNK         0.3459 
    133 H133       32.8806    2.5644   -9.7711 H         1 UNK         0.3459 
    134 H134       32.6974    0.0780   -5.9054 H         1 UNK         0.0612 
    135 H135       34.3823    0.5222   -5.9282 H         1 UNK         0.0612 
    136 H136       32.7552   -3.7390   -5.7016 H         1 UNK         0.0624 
    137 H137       31.8667   -2.2873   -6.0788 H         1 UNK         0.0624 
@<TRIPOS>BOND
     1    1    2 1    
     2    1   72 1    
     3    1   73 1    
     4    1   74 1    
     5    2    3 2    
     6    2    4 am   BACKBONE|DICT|INTERRES
     7    4    5 1    
     8    4   75 1    
     9    5    6 1    
    10    5   35 1    
    11    5   76 1    
    12    6    7 1    
    13    6   77 1    
    14    6   78 1    
    15    7    8 1    
    16    8    9 1    
    17    8   79 1    
    18    8   80 1    
    19    9   10 ar   
    20    9   14 ar   
    21   10   11 ar   
    22   10   81 1    
    23   11   12 ar   
    24   11   71 1    
    25   12   13 ar   
    26   12   82 1    
    27   13   14 ar   
    28   13   15 1    
    29   14   83 1    
    30   15   16 1    
    31   15   84 1    
    32   15   85 1    
    33   16   17 1    
    34   17   18 1    
    35   17   86 1    
    36   17   87 1    
    37   18   19 1    
    38   18   37 1    
    39   18   88 1    
    40   19   20 am   BACKBONE|DICT|INTERRES
    41   19   89 1    
    42   20   21 2    
    43   20   22 1    
    44   22   23 1    
    45   22   24 1    
    46   22   90 1    
    47   23   91 1    
    48   23   92 1    
    49   23   93 1    
    50   24   25 am   BACKBONE|DICT|INTERRES
    51   24   94 1    
    52   25   26 2    
    53   25   27 1    
    54   27   28 1    
    55   27   29 1    
    56   27   95 1    
    57   28   96 1    
    58   28   97 1    
    59   28   98 1    
    60   29   30 am   BACKBONE|DICT|INTERRES
    61   29   99 1    
    62   30   31 2    
    63   30   32 1    
    64   32   33 1    
    65   32   34 1    
    66   32  100 1    
    67   33  101 1    
    68   33  102 1    
    69   33  103 1    
    70   34   35 am   BACKBONE|DICT|INTERRES
    71   34  104 1    
    72   35   36 2    
    73   37   38 2    
    74   37   39 am   BACKBONE|DICT|INTERRES
    75   39   40 1    
    76   39  105 1    
    77   40   41 1    
    78   40   42 1    
    79   40  106 1    
    80   41  107 1    
    81   41  108 1    
    82   41  109 1    
    83   42   43 2    
    84   42   44 am   BACKBONE|DICT|INTERRES
    85   44   45 1    
    86   44  110 1    
    87   45   46 1    
    88   45   47 1    
    89   45  111 1    
    90   46  112 1    
    91   46  113 1    
    92   46  114 1    
    93   47   48 2    
    94   47   49 am   BACKBONE|DICT|INTERRES
    95   49   50 1    
    96   49  115 1    
    97   50   51 1    
    98   50   52 1    
    99   50  116 1    
   100   51  117 1    
   101   51  118 1    
   102   51  119 1    
   103   52   53 2    
   104   52   54 am   BACKBONE|DICT|INTERRES
   105   54   55 1    
   106   54  120 1    
   107   55   56 1    
   108   55   57 1    
   109   55  121 1    
   110   56  122 1    
   111   56  123 1    
   112   56  124 1    
   113   57   58 2    
   114   57   59 am   BACKBONE|DICT|INTERRES
   115   59   60 1    
   116   59  125 1    
   117   60   61 1    
   118   60   62 1    
   119   60  126 1    
   120   61  127 1    
   121   61  128 1    
   122   61  129 1    
   123   62   63 2    
   124   62   64 am   BACKBONE|DICT|INTERRES
   125   64   65 1    
   126   64  130 1    
   127   65   66 1    
   128   65   69 1    
   129   65  131 1    
   130   66   67 am   BACKBONE|DICT|INTERRES
   131   66   68 2    
   132   67  132 1    
   133   67  133 1    
   134   69   70 1    
   135   69  134 1    
   136   69  135 1    
   137   70   71 1    
   138   71  136 1    
   139   71  137 1    
@<TRIPOS>SUBSTRUCTURE
     1 UNK         1 GROUP             0       ****    0 ROOT    
