@<TRIPOS>MOLECULE
3R137
137   139    1
SMALL
USER_CHARGES


@<TRIPOS>ATOM
      1 CA         26.2007   -3.6170    2.4439 C.3       0 UNK        -0.2020 
      2 C          25.8705   -4.3077    1.1236 C.2       0 UNK         0.4855 
      3 O          25.1711   -5.3182    1.1297 O.2       0 UNK        -0.5197 
      4 N          26.3386   -3.8110   -0.0312 N.am      1 UNK        -0.4892 
      5 CA         27.1591   -2.6018   -0.2115 C.3       1 UNK         0.0835 
      6 C6         28.0480   -2.7114   -1.4820 C.3       12 UNK        -0.0855 
      7 S7         29.7456   -2.1081   -1.1798 S.3       12 UNK        -0.2931 
      8 C8         30.7542   -3.5438   -1.6707 C.3       12 UNK         0.0378 
      9 C9         30.8451   -3.6639   -3.1849 C.ar      12 UNK        -0.0802 
     10 C10        31.8012   -2.9263   -3.8871 C.ar      12 UNK        -0.0944 
     11 C11        31.8792   -3.0006   -5.2817 C.ar      12 UNK        -0.0787 
     12 C12        30.9930   -3.8348   -5.9750 C.ar      12 UNK        -0.0862 
     13 C13        30.0485   -4.5994   -5.2795 C.ar      12 UNK        -0.0733 
     14 C14        29.9812   -4.5088   -3.8861 C.ar      12 UNK        -0.0832 
     15 C15        29.1268   -5.5653   -6.0111 C.3       12 UNK         0.0240 
     16 S16        27.4006   -4.9759   -6.0523 S.3       12 UNK        -0.2522 
     17 C17        27.1880   -4.4787   -7.7995 C.3       12 UNK        -0.0967 
     18 CA         26.8428   -2.9844   -8.0026 C.3       5 UNK         0.0660 
     19 N          25.6224   -2.5835   -7.2995 N.am      5 UNK        -0.4015 
     20 C          25.0107   -1.3997   -7.4382 C.2       4 UNK         0.4946 
     21 O          25.4091   -0.5105   -8.1934 O.2       4 UNK        -0.5353 
     22 CA         23.7736   -1.1316   -6.5623 C.3       4 UNK         0.0277 
     23 CB         23.2119   -2.3870   -5.8549 C.3       4 UNK        -0.1981 
     24 N          24.0313   -0.0682   -5.5847 N.am      4 UNK        -0.4209 
     25 C          24.9995   -0.0446   -4.6559 C.2       3 UNK         0.4942 
     26 O          25.8488   -0.9292   -4.5253 O.2       3 UNK        -0.5208 
     27 CA         25.0472    1.1686   -3.7068 C.3       3 UNK         0.0250 
     28 CB         24.0471    2.2998   -4.0469 C.3       3 UNK        -0.1990 
     29 N          24.9021    0.7396   -2.3115 N.am      3 UNK        -0.4232 
     30 C          23.8458    0.1229   -1.7601 C.2       2 UNK         0.4993 
     31 O          22.7938   -0.1176   -2.3560 O.2       2 UNK        -0.5286 
     32 CA         24.0207   -0.3365   -0.3018 C.3       2 UNK         0.0209 
     33 CB         22.6970   -0.7886    0.3441 C.3       2 UNK        -0.1931 
     34 N          24.9798   -1.4391   -0.2305 N.am      2 UNK        -0.4546 
     35 C          26.3134   -1.3063   -0.2264 C.2       1 UNK         0.5154 
     36 O          26.8733   -0.2089   -0.2415 O.2       1 UNK        -0.5181 
     37 C          28.0491   -2.0694   -7.7135 C.2       5 UNK         0.5014 
     38 O          28.8657   -1.8715   -8.6126 O.2       5 UNK        -0.5248 
     39 N          28.1254   -1.4922   -6.5045 N.am      6 UNK        -0.4434 
     40 CA         29.1821   -0.5528   -6.1289 C.3       6 UNK         0.0363 
     41 CB         29.1899   -0.3499   -4.6073 C.3       6 UNK        -0.1936 
     42 C          29.0595    0.7908   -6.8603 C.2       6 UNK         0.5081 
     43 O          30.0758    1.3675   -7.2495 O.2       6 UNK        -0.5248 
     44 N          27.8161    1.2444   -7.0703 N.am      7 UNK        -0.4718 
     45 CA         27.4989    2.4432   -7.8455 C.3       7 UNK         0.0273 
     46 CB         26.0777    2.9197   -7.5108 C.3       7 UNK        -0.1935 
     47 C          27.6674    2.2100   -9.3539 C.2       7 UNK         0.5018 
     48 O          28.1601    3.1022  -10.0433 O.2       7 UNK        -0.5186 
     49 N          27.2945    1.0124   -9.8314 N.am      8 UNK        -0.4240 
     50 CA         27.4892    0.5741  -11.2168 C.3       8 UNK         0.0235 
     51 CB         26.7468   -0.7494  -11.4578 C.3       8 UNK        -0.2000 
     52 C          28.9757    0.4437  -11.5923 C.2       8 UNK         0.4941 
     53 O          29.3673    0.8995  -12.6673 O.2       8 UNK        -0.5273 
     54 N          29.7789   -0.1465  -10.6943 N.am      9 UNK        -0.4262 
     55 CA         31.2371   -0.2328  -10.8161 C.3       9 UNK         0.0264 
     56 CB         31.7738   -1.2483   -9.7929 C.3       9 UNK        -0.1955 
     57 C          31.9407    1.1217  -10.6226 C.2       9 UNK         0.5031 
     58 O          33.0303    1.3104  -11.1653 O.2       9 UNK        -0.5390 
     59 N          31.3200    2.0147   -9.8360 N.am      10 UNK        -0.4204 
     60 CA         31.8268    3.3109   -9.3718 C.3       10 UNK         0.0237 
     61 CB         31.9913    4.2988  -10.5461 C.3       10 UNK        -0.1985 
     62 C          33.0991    3.1553   -8.5162 C.2       10 UNK         0.4970 
     63 O          34.0354    3.9460   -8.6481 O.2       10 UNK        -0.4914 
     64 N          33.1121    2.1182   -7.6689 N.am      11 UNK        -0.4285 
     65 CA         34.2502    1.7434   -6.8168 C.3       11 UNK         0.1007 
     66 C          34.3932    2.5794   -5.5109 C.2       11 UNK         0.5703 
     67 N          33.4355    3.4281   -5.1551 N.am      11 UNK        -0.7361 
     68 O          35.4027    2.4695   -4.8187 O.2       11 UNK        -0.4986 
     69 C69        34.2855    0.2132   -6.5600 C.3       12 UNK        -0.0947 
     70 S70        32.8118   -0.4151   -5.6923 S.3       12 UNK        -0.2240 
     71 C71        32.9418   -2.2002   -6.0263 C.3       12 UNK         0.0194 
     72 H72        25.6707   -4.0962    3.2669 H         1 UNK         0.0906 
     73 H73        27.2674   -3.6812    2.6568 H         1 UNK         0.0906 
     74 H74        25.9046   -2.5688    2.4306 H         1 UNK         0.0906 
     75 H75        26.0998   -4.2975   -0.8844 H         1 UNK         0.3140 
     76 H76        27.8170   -2.5180    0.6552 H         1 UNK         0.1085 
     77 H77        27.6250   -2.1748   -2.3349 H         1 UNK         0.0836 
     78 H78        28.1092   -3.7497   -1.8072 H         1 UNK         0.0836 
     79 H79        31.7558   -3.4272   -1.2538 H         1 UNK         0.0731 
     80 H80        30.3481   -4.4556   -1.2295 H         1 UNK         0.0731 
     81 H81        32.4786   -2.2785   -3.3475 H         1 UNK         0.1312 
     82 H82        31.0486   -3.9017   -7.0531 H         1 UNK         0.1406 
     83 H83        29.2517   -5.1009   -3.3510 H         1 UNK         0.1631 
     84 H84        29.1454   -6.5260   -5.4944 H         1 UNK         0.0717 
     85 H85        29.4980   -5.7686   -7.0160 H         1 UNK         0.0717 
     86 H86        28.0708   -4.7403   -8.3853 H         1 UNK         0.0934 
     87 H87        26.3849   -5.0900   -8.2144 H         1 UNK         0.0934 
     88 H88        26.6231   -2.8612   -9.0641 H         1 UNK         0.0739 
     89 H89        25.2637   -3.2394   -6.6209 H         1 UNK         0.3093 
     90 H90        23.0014   -0.7579   -7.2365 H         1 UNK         0.0818 
     91 H91        22.2910   -2.1499   -5.3217 H         1 UNK         0.0819 
     92 H92        22.9690   -3.1720   -6.5725 H         1 UNK         0.0819 
     93 H93        23.9085   -2.8019   -5.1252 H         1 UNK         0.0819 
     94 H94        23.3956    0.7160   -5.6168 H         1 UNK         0.3041 
     95 H95        26.0527    1.5817   -3.7999 H         1 UNK         0.0784 
     96 H96        24.1852    3.1512   -3.3803 H         1 UNK         0.0793 
     97 H97        24.1898    2.6689   -5.0623 H         1 UNK         0.0793 
     98 H98        23.0082    1.9816   -3.9559 H         1 UNK         0.0793 
     99 H99        25.7408    0.8015   -1.7440 H         1 UNK         0.3024 
    100 H100       24.3977    0.5144    0.2711 H         1 UNK         0.1171 
    101 H101       21.9556    0.0110    0.3133 H         1 UNK         0.0786 
    102 H102       22.8389   -1.0570    1.3912 H         1 UNK         0.0786 
    103 H103       22.2682   -1.6511   -0.1677 H         1 UNK         0.0786 
    104 H104       24.5986   -2.3741   -0.2583 H         1 UNK         0.2977 
    105 H105       27.3969   -1.6658   -5.8198 H         1 UNK         0.3127 
    106 H106       30.1317   -0.9999   -6.4212 H         1 UNK         0.0770 
    107 H107       28.2807    0.1339   -4.2514 H         1 UNK         0.0814 
    108 H108       30.0321    0.2729   -4.3036 H         1 UNK         0.0814 
    109 H109       29.2900   -1.3019   -4.0877 H         1 UNK         0.0814 
    110 H110       27.0394    0.6673   -6.7797 H         1 UNK         0.2983 
    111 H111       28.1956    3.2339   -7.5570 H         1 UNK         0.0947 
    112 H112       25.8114    3.7971   -8.1019 H         1 UNK         0.0806 
    113 H113       26.0010    3.2043   -6.4622 H         1 UNK         0.0806 
    114 H114       25.3298    2.1520   -7.7114 H         1 UNK         0.0806 
    115 H115       26.8221    0.3677   -9.2029 H         1 UNK         0.3000 
    116 H116       27.0470    1.3335  -11.8654 H         1 UNK         0.0850 
    117 H117       26.7851   -1.0281  -12.5116 H         1 UNK         0.0810 
    118 H118       25.6956   -0.6752  -11.1784 H         1 UNK         0.0810 
    119 H119       27.1895   -1.5680  -10.8917 H         1 UNK         0.0810 
    120 H120       29.3672   -0.5830   -9.8711 H         1 UNK         0.3040 
    121 H121       31.4766   -0.5933  -11.8187 H         1 UNK         0.0766 
    122 H122       32.8577   -1.3465   -9.8676 H         1 UNK         0.0812 
    123 H123       31.3461   -2.2380   -9.9538 H         1 UNK         0.0812 
    124 H124       31.5428   -0.9474   -8.7699 H         1 UNK         0.0812 
    125 H125       30.4583    1.7188   -9.3941 H         1 UNK         0.3205 
    126 H126       31.0608    3.7139   -8.7076 H         1 UNK         0.0754 
    127 H127       32.2420    5.2968  -10.1845 H         1 UNK         0.0769 
    128 H128       31.0683    4.3846  -11.1200 H         1 UNK         0.0769 
    129 H129       32.7841    3.9918  -11.2287 H         1 UNK         0.0769 
    130 H130       32.2732    1.5594   -7.5654 H         1 UNK         0.2981 
    131 H131       35.1553    1.9681   -7.3844 H         1 UNK         0.0541 
    132 H132       32.6018    3.5165   -5.7130 H         1 UNK         0.3459 
    133 H133       33.5422    3.9694   -4.3121 H         1 UNK         0.3459 
    134 H134       35.1724   -0.0631   -5.9871 H         1 UNK         0.0612 
    135 H135       34.3717   -0.3095   -7.5141 H         1 UNK         0.0612 
    136 H136       32.8691   -2.3658   -7.1020 H         1 UNK         0.0624 
    137 H137       33.9279   -2.5514   -5.7199 H         1 UNK         0.0624 
@<TRIPOS>BOND
     1    1    2 1    
     2    1   72 1    
     3    1   73 1    
     4    1   74 1    
     5    2    3 2    
     6    2    4 am   BACKBONE|DICT|INTERRES
     7    4    5 1    
     8    4   75 1    
     9    5    6 1    
    10    5   35 1    
    11    5   76 1    
    12    6    7 1    
    13    6   77 1    
    14    6   78 1    
    15    7    8 1    
    16    8    9 1    
    17    8   79 1    
    18    8   80 1    
    19    9   10 ar   
    20    9   14 ar   
    21   10   11 ar   
    22   10   81 1    
    23   11   12 ar   
    24   11   71 1    
    25   12   13 ar   
    26   12   82 1    
    27   13   14 ar   
    28   13   15 1    
    29   14   83 1    
    30   15   16 1    
    31   15   84 1    
    32   15   85 1    
    33   16   17 1    
    34   17   18 1    
    35   17   86 1    
    36   17   87 1    
    37   18   19 1    
    38   18   37 1    
    39   18   88 1    
    40   19   20 am   BACKBONE|DICT|INTERRES
    41   19   89 1    
    42   20   21 2    
    43   20   22 1    
    44   22   23 1    
    45   22   24 1    
    46   22   90 1    
    47   23   91 1    
    48   23   92 1    
    49   23   93 1    
    50   24   25 am   BACKBONE|DICT|INTERRES
    51   24   94 1    
    52   25   26 2    
    53   25   27 1    
    54   27   28 1    
    55   27   29 1    
    56   27   95 1    
    57   28   96 1    
    58   28   97 1    
    59   28   98 1    
    60   29   30 am   BACKBONE|DICT|INTERRES
    61   29   99 1    
    62   30   31 2    
    63   30   32 1    
    64   32   33 1    
    65   32   34 1    
    66   32  100 1    
    67   33  101 1    
    68   33  102 1    
    69   33  103 1    
    70   34   35 am   BACKBONE|DICT|INTERRES
    71   34  104 1    
    72   35   36 2    
    73   37   38 2    
    74   37   39 am   BACKBONE|DICT|INTERRES
    75   39   40 1    
    76   39  105 1    
    77   40   41 1    
    78   40   42 1    
    79   40  106 1    
    80   41  107 1    
    81   41  108 1    
    82   41  109 1    
    83   42   43 2    
    84   42   44 am   BACKBONE|DICT|INTERRES
    85   44   45 1    
    86   44  110 1    
    87   45   46 1    
    88   45   47 1    
    89   45  111 1    
    90   46  112 1    
    91   46  113 1    
    92   46  114 1    
    93   47   48 2    
    94   47   49 am   BACKBONE|DICT|INTERRES
    95   49   50 1    
    96   49  115 1    
    97   50   51 1    
    98   50   52 1    
    99   50  116 1    
   100   51  117 1    
   101   51  118 1    
   102   51  119 1    
   103   52   53 2    
   104   52   54 am   BACKBONE|DICT|INTERRES
   105   54   55 1    
   106   54  120 1    
   107   55   56 1    
   108   55   57 1    
   109   55  121 1    
   110   56  122 1    
   111   56  123 1    
   112   56  124 1    
   113   57   58 2    
   114   57   59 am   BACKBONE|DICT|INTERRES
   115   59   60 1    
   116   59  125 1    
   117   60   61 1    
   118   60   62 1    
   119   60  126 1    
   120   61  127 1    
   121   61  128 1    
   122   61  129 1    
   123   62   63 2    
   124   62   64 am   BACKBONE|DICT|INTERRES
   125   64   65 1    
   126   64  130 1    
   127   65   66 1    
   128   65   69 1    
   129   65  131 1    
   130   66   67 am   BACKBONE|DICT|INTERRES
   131   66   68 2    
   132   67  132 1    
   133   67  133 1    
   134   69   70 1    
   135   69  134 1    
   136   69  135 1    
   137   70   71 1    
   138   71  136 1    
   139   71  137 1    
@<TRIPOS>SUBSTRUCTURE
     1 UNK         1 GROUP             0       ****    0 ROOT    
