@<TRIPOS>MOLECULE
3R137
137   139    1
SMALL
USER_CHARGES


@<TRIPOS>ATOM
      1 CA         24.9400   -2.3764   -7.7899 C.3       0 UNK        -0.2020 
      2 C          25.3349   -3.4031   -6.7447 C.2       0 UNK         0.4855 
      3 O          24.8740   -4.5431   -6.8024 O.2       0 UNK        -0.5197 
      4 N          26.1780   -3.0103   -5.7817 N.am      1 UNK        -0.4892 
      5 CA         26.6943   -3.8907   -4.7338 C.3       1 UNK         0.0835 
      6 C6         28.1454   -3.5198   -4.3433 C.3       12 UNK        -0.0855 
      7 S7         29.0365   -4.9635   -3.6696 S.3       12 UNK        -0.2931 
      8 C8         29.6435   -4.3176   -2.0774 C.3       12 UNK         0.0378 
      9 C9         30.5678   -3.1168   -2.2442 C.ar      12 UNK        -0.0802 
     10 C10        31.6362   -3.1548   -3.1455 C.ar      12 UNK        -0.0944 
     11 C11        32.4622   -2.0416   -3.3204 C.ar      12 UNK        -0.0787 
     12 C12        32.2295   -0.8860   -2.5688 C.ar      12 UNK        -0.0862 
     13 C13        31.1831   -0.8463   -1.6413 C.ar      12 UNK        -0.0733 
     14 C14        30.3554   -1.9626   -1.4865 C.ar      12 UNK        -0.0832 
     15 C15        30.9599    0.3880   -0.7804 C.3       12 UNK         0.0240 
     16 S16        29.3264    1.1369   -1.0639 S.3       12 UNK        -0.2522 
     17 C17        29.5166    1.8292   -2.7409 C.3       12 UNK        -0.0967 
     18 CA         28.5783    1.1774   -3.7917 C.3       5 UNK         0.0660 
     19 N          27.1812    1.1316   -3.3459 N.am      5 UNK        -0.4015 
     20 C          26.1754    0.5212   -3.9848 C.2       4 UNK         0.4946 
     21 O          26.3045   -0.1564   -5.0116 O.2       4 UNK        -0.5353 
     22 CA         24.7778    0.7833   -3.4136 C.3       4 UNK         0.0277 
     23 CB         24.2987    2.1913   -3.8331 C.3       4 UNK        -0.1981 
     24 N          23.8693   -0.2501   -3.9015 N.am      4 UNK        -0.4209 
     25 C          22.5893   -0.4197   -3.5454 C.2       3 UNK         0.4942 
     26 O          21.9914    0.2957   -2.7408 O.2       3 UNK        -0.5208 
     27 CA         21.8558   -1.6077   -4.1875 C.3       3 UNK         0.0250 
     28 CB         21.6491   -1.3827   -5.6955 C.3       3 UNK        -0.1990 
     29 N          22.5679   -2.8664   -3.9619 N.am      3 UNK        -0.4232 
     30 C          22.6489   -3.4927   -2.7777 C.2       2 UNK         0.4993 
     31 O          22.0598   -3.1230   -1.7615 O.2       2 UNK        -0.5286 
     32 CA         23.5415   -4.7443   -2.7121 C.3       2 UNK         0.0209 
     33 CB         22.7126   -6.0146   -2.9626 C.3       2 UNK        -0.1931 
     34 N          24.6559   -4.6966   -3.6625 N.am      2 UNK        -0.4546 
     35 C          25.7100   -3.8766   -3.5520 C.2       1 UNK         0.5154 
     36 O          25.8740   -3.0971   -2.6117 O.2       1 UNK        -0.5181 
     37 C          28.6957    1.9364   -5.1278 C.2       5 UNK         0.5014 
     38 O          29.2806    1.4264   -6.0832 O.2       5 UNK        -0.5248 
     39 N          28.0931    3.1347   -5.1743 N.am      6 UNK        -0.4434 
     40 CA         28.0813    4.0357   -6.3305 C.3       6 UNK         0.0363 
     41 CB         27.5836    5.4194   -5.8822 C.3       6 UNK        -0.1936 
     42 C          27.2437    3.5237   -7.5148 C.2       6 UNK         0.5081 
     43 O          27.4418    3.9946   -8.6338 O.2       6 UNK        -0.5248 
     44 N          26.3329    2.5735   -7.2627 N.am      7 UNK        -0.4718 
     45 CA         25.5805    1.8729   -8.3041 C.3       7 UNK         0.0273 
     46 CB         24.2932    1.2821   -7.7050 C.3       7 UNK        -0.1935 
     47 C          26.4305    0.8027   -9.0151 C.2       7 UNK         0.5018 
     48 O          26.1699    0.5180  -10.1842 O.2       7 UNK        -0.5186 
     49 N          27.4324    0.2443   -8.3168 N.am      8 UNK        -0.4240 
     50 CA         28.4494   -0.6326   -8.9008 C.3       8 UNK         0.0235 
     51 CB         28.9975   -1.6006   -7.8383 C.3       8 UNK        -0.2000 
     52 C          29.5778    0.1962   -9.5306 C.2       8 UNK         0.4941 
     53 O          29.9144   -0.0279  -10.6939 O.2       8 UNK        -0.5273 
     54 N          30.1274    1.1429   -8.7536 N.am      9 UNK        -0.4262 
     55 CA         31.1520    2.1473   -9.0799 C.3       9 UNK         0.0264 
     56 CB         30.6468    3.1282  -10.1550 C.3       9 UNK        -0.1955 
     57 C          32.5373    1.5995   -9.4694 C.2       9 UNK         0.5031 
     58 O          33.5428    2.1114   -8.9750 O.2       9 UNK        -0.5390 
     59 N          32.5759    0.5931  -10.3510 N.am      10 UNK        -0.4204 
     60 CA         33.7742    0.0279  -10.9812 C.3       10 UNK         0.0237 
     61 CB         33.3491   -1.0594  -11.9812 C.3       10 UNK        -0.1985 
     62 C          34.8255   -0.5249  -10.0037 C.2       10 UNK         0.4970 
     63 O          36.0140   -0.4969  -10.3264 O.2       10 UNK        -0.4914 
     64 N          34.3787   -1.0050   -8.8375 N.am      11 UNK        -0.4285 
     65 CA         35.2416   -1.4634   -7.7413 C.3       11 UNK         0.1007 
     66 C          35.8523   -0.3253   -6.8693 C.2       11 UNK         0.5703 
     67 N          35.5082    0.9415   -7.0753 N.am      11 UNK        -0.7361 
     68 O          36.6713   -0.5985   -5.9950 O.2       11 UNK        -0.4986 
     69 C69        34.5487   -2.5671   -6.9023 C.3       12 UNK        -0.0947 
     70 S70        33.0407   -2.0211   -6.0268 S.3       12 UNK        -0.2240 
     71 C71        33.6188   -2.1119   -4.3035 C.3       12 UNK         0.0194 
     72 H72        25.4370   -2.5928   -8.7352 H         1 UNK         0.0906 
     73 H73        23.8640   -2.3914   -7.9587 H         1 UNK         0.0906 
     74 H74        25.2272   -1.3770   -7.4774 H         1 UNK         0.0906 
     75 H75        26.4477   -2.0324   -5.7046 H         1 UNK         0.3140 
     76 H76        26.7208   -4.9098   -5.1285 H         1 UNK         0.1085 
     77 H77        28.1815   -2.6691   -3.6598 H         1 UNK         0.0836 
     78 H78        28.7021   -3.2035   -5.2264 H         1 UNK         0.0836 
     79 H79        28.7833   -4.0651   -1.4548 H         1 UNK         0.0731 
     80 H80        30.1836   -5.1091   -1.5564 H         1 UNK         0.0731 
     81 H81        31.8164   -4.0484   -3.7277 H         1 UNK         0.1312 
     82 H82        32.8734   -0.0261   -2.6940 H         1 UNK         0.1406 
     83 H83        29.5416   -1.9258   -0.7744 H         1 UNK         0.1631 
     84 H84        31.7359    1.1361   -0.9502 H         1 UNK         0.0717 
     85 H85        31.0362    0.1024    0.2697 H         1 UNK         0.0717 
     86 H86        29.3321    2.9023   -2.6593 H         1 UNK         0.0934 
     87 H87        30.5563    1.7324   -3.0601 H         1 UNK         0.0934 
     88 H88        28.9068    0.1487   -3.9587 H         1 UNK         0.0739 
     89 H89        26.9813    1.6317   -2.4916 H         1 UNK         0.3093 
     90 H90        24.8254    0.7144   -2.3249 H         1 UNK         0.0818 
     91 H91        23.3488    2.4508   -3.3669 H         1 UNK         0.0819 
     92 H92        25.0099    2.9619   -3.5339 H         1 UNK         0.0819 
     93 H93        24.1678    2.2698   -4.9120 H         1 UNK         0.0819 
     94 H94        24.3034   -0.8951   -4.5481 H         1 UNK         0.3041 
     95 H95        20.8709   -1.6858   -3.7215 H         1 UNK         0.0784 
     96 H96        21.0823   -0.4682   -5.8758 H         1 UNK         0.0793 
     97 H97        22.5936   -1.2868   -6.2300 H         1 UNK         0.0793 
     98 H98        21.0895   -2.2026   -6.1462 H         1 UNK         0.0793 
     99 H99        23.0695   -3.2624   -4.7429 H         1 UNK         0.3024 
    100 H100       23.9557   -4.7958   -1.7022 H         1 UNK         0.1171 
    101 H101       21.8864   -6.0869   -2.2537 H         1 UNK         0.0786 
    102 H102       23.3181   -6.9134   -2.8438 H         1 UNK         0.0786 
    103 H103       22.2837   -6.0277   -3.9654 H         1 UNK         0.0786 
    104 H104       24.5768   -5.2681   -4.4941 H         1 UNK         0.2977 
    105 H105       27.6270    3.4699   -4.3440 H         1 UNK         0.3127 
    106 H106       29.1091    4.1389   -6.6858 H         1 UNK         0.0770 
    107 H107       26.5616    5.3786   -5.5033 H         1 UNK         0.0814 
    108 H108       27.5938    6.1258   -6.7137 H         1 UNK         0.0814 
    109 H109       28.2178    5.8365   -5.0998 H         1 UNK         0.0814 
    110 H110       26.2310    2.2395   -6.3162 H         1 UNK         0.2983 
    111 H111       25.2842    2.5963   -9.0676 H         1 UNK         0.0947 
    112 H112       23.7677    0.6621   -8.4328 H         1 UNK         0.0806 
    113 H113       23.6057    2.0721   -7.4028 H         1 UNK         0.0806 
    114 H114       24.4922    0.6674   -6.8287 H         1 UNK         0.0806 
    115 H115       27.5910    0.5527   -7.3663 H         1 UNK         0.3000 
    116 H116       27.9966   -1.2333   -9.6929 H         1 UNK         0.0850 
    117 H117       29.3855   -1.0813   -6.9616 H         1 UNK         0.0810 
    118 H118       28.2245   -2.2901   -7.5045 H         1 UNK         0.0810 
    119 H119       29.8103   -2.2056   -8.2426 H         1 UNK         0.0810 
    120 H120       29.7973    1.1933   -7.7894 H         1 UNK         0.3040 
    121 H121       31.2944    2.7178   -8.1605 H         1 UNK         0.0766 
    122 H122       29.7284    3.6217   -9.8417 H         1 UNK         0.0812 
    123 H123       30.4499    2.6295  -11.1045 H         1 UNK         0.0812 
    124 H124       31.3825    3.9106  -10.3462 H         1 UNK         0.0812 
    125 H125       31.6728    0.2470  -10.6762 H         1 UNK         0.3205 
    126 H126       34.2518    0.8360  -11.5388 H         1 UNK         0.0754 
    127 H127       32.6894   -0.6557  -12.7497 H         1 UNK         0.0769 
    128 H128       32.8250   -1.8783  -11.4865 H         1 UNK         0.0769 
    129 H129       34.2151   -1.4849  -12.4906 H         1 UNK         0.0769 
    130 H130       33.3897   -0.9740   -8.6406 H         1 UNK         0.2981 
    131 H131       36.1067   -1.9454   -8.2007 H         1 UNK         0.0541 
    132 H132       34.8384    1.1992   -7.7930 H         1 UNK         0.3459 
    133 H133       35.9232    1.6588   -6.5029 H         1 UNK         0.3459 
    134 H134       34.2646   -3.3925   -7.5568 H         1 UNK         0.0612 
    135 H135       35.2582   -2.9981   -6.1940 H         1 UNK         0.0612 
    136 H136       34.3353   -1.3090   -4.1226 H         1 UNK         0.0624 
    137 H137       34.1550   -3.0486   -4.1444 H         1 UNK         0.0624 
@<TRIPOS>BOND
     1    1    2 1    
     2    1   72 1    
     3    1   73 1    
     4    1   74 1    
     5    2    3 2    
     6    2    4 am   BACKBONE|DICT|INTERRES
     7    4    5 1    
     8    4   75 1    
     9    5    6 1    
    10    5   35 1    
    11    5   76 1    
    12    6    7 1    
    13    6   77 1    
    14    6   78 1    
    15    7    8 1    
    16    8    9 1    
    17    8   79 1    
    18    8   80 1    
    19    9   10 ar   
    20    9   14 ar   
    21   10   11 ar   
    22   10   81 1    
    23   11   12 ar   
    24   11   71 1    
    25   12   13 ar   
    26   12   82 1    
    27   13   14 ar   
    28   13   15 1    
    29   14   83 1    
    30   15   16 1    
    31   15   84 1    
    32   15   85 1    
    33   16   17 1    
    34   17   18 1    
    35   17   86 1    
    36   17   87 1    
    37   18   19 1    
    38   18   37 1    
    39   18   88 1    
    40   19   20 am   BACKBONE|DICT|INTERRES
    41   19   89 1    
    42   20   21 2    
    43   20   22 1    
    44   22   23 1    
    45   22   24 1    
    46   22   90 1    
    47   23   91 1    
    48   23   92 1    
    49   23   93 1    
    50   24   25 am   BACKBONE|DICT|INTERRES
    51   24   94 1    
    52   25   26 2    
    53   25   27 1    
    54   27   28 1    
    55   27   29 1    
    56   27   95 1    
    57   28   96 1    
    58   28   97 1    
    59   28   98 1    
    60   29   30 am   BACKBONE|DICT|INTERRES
    61   29   99 1    
    62   30   31 2    
    63   30   32 1    
    64   32   33 1    
    65   32   34 1    
    66   32  100 1    
    67   33  101 1    
    68   33  102 1    
    69   33  103 1    
    70   34   35 am   BACKBONE|DICT|INTERRES
    71   34  104 1    
    72   35   36 2    
    73   37   38 2    
    74   37   39 am   BACKBONE|DICT|INTERRES
    75   39   40 1    
    76   39  105 1    
    77   40   41 1    
    78   40   42 1    
    79   40  106 1    
    80   41  107 1    
    81   41  108 1    
    82   41  109 1    
    83   42   43 2    
    84   42   44 am   BACKBONE|DICT|INTERRES
    85   44   45 1    
    86   44  110 1    
    87   45   46 1    
    88   45   47 1    
    89   45  111 1    
    90   46  112 1    
    91   46  113 1    
    92   46  114 1    
    93   47   48 2    
    94   47   49 am   BACKBONE|DICT|INTERRES
    95   49   50 1    
    96   49  115 1    
    97   50   51 1    
    98   50   52 1    
    99   50  116 1    
   100   51  117 1    
   101   51  118 1    
   102   51  119 1    
   103   52   53 2    
   104   52   54 am   BACKBONE|DICT|INTERRES
   105   54   55 1    
   106   54  120 1    
   107   55   56 1    
   108   55   57 1    
   109   55  121 1    
   110   56  122 1    
   111   56  123 1    
   112   56  124 1    
   113   57   58 2    
   114   57   59 am   BACKBONE|DICT|INTERRES
   115   59   60 1    
   116   59  125 1    
   117   60   61 1    
   118   60   62 1    
   119   60  126 1    
   120   61  127 1    
   121   61  128 1    
   122   61  129 1    
   123   62   63 2    
   124   62   64 am   BACKBONE|DICT|INTERRES
   125   64   65 1    
   126   64  130 1    
   127   65   66 1    
   128   65   69 1    
   129   65  131 1    
   130   66   67 am   BACKBONE|DICT|INTERRES
   131   66   68 2    
   132   67  132 1    
   133   67  133 1    
   134   69   70 1    
   135   69  134 1    
   136   69  135 1    
   137   70   71 1    
   138   71  136 1    
   139   71  137 1    
@<TRIPOS>SUBSTRUCTURE
     1 UNK         1 GROUP             0       ****    0 ROOT    
