@<TRIPOS>MOLECULE
3R137
137   139    1
SMALL
USER_CHARGES


@<TRIPOS>ATOM
      1 CA         26.1408   -6.3005   -5.2215 C.3       0 UNK        -0.2020 
      2 C          26.3962   -5.5172   -3.9431 C.2       0 UNK         0.4855 
      3 O          25.4486   -5.1516   -3.2472 O.2       0 UNK        -0.5197 
      4 N          27.6723   -5.2459   -3.6398 N.am      1 UNK        -0.4892 
      5 CA         28.1506   -4.4953   -2.4715 C.3       1 UNK         0.0835 
      6 C6         29.7011   -4.4849   -2.4323 C.3       12 UNK        -0.0855 
      7 S7         30.4123   -4.5427   -0.7506 S.3       12 UNK        -0.2931 
      8 C8         30.2196   -2.8378   -0.1129 C.3       12 UNK         0.0378 
      9 C9         30.7908   -1.7109   -0.9763 C.ar      12 UNK        -0.0802 
     10 C10        31.7846   -1.9187   -1.9408 C.ar      12 UNK        -0.0944 
     11 C11        32.2200   -0.8696   -2.7551 C.ar      12 UNK        -0.0787 
     12 C12        31.7117    0.4168   -2.5558 C.ar      12 UNK        -0.0862 
     13 C13        30.7452    0.6481   -1.5723 C.ar      12 UNK        -0.0733 
     14 C14        30.2896   -0.4189   -0.7923 C.ar      12 UNK        -0.0832 
     15 C15        30.1655    2.0412   -1.3599 C.3       12 UNK         0.0240 
     16 S16        29.3430    2.7163   -2.8412 S.3       12 UNK        -0.2522 
     17 C17        28.1581    1.4038   -3.3009 C.3       12 UNK        -0.0967 
     18 CA         28.1141    1.2206   -4.8394 C.3       5 UNK         0.0660 
     19 N          27.8942   -0.1703   -5.2433 N.am      5 UNK        -0.4015 
     20 C          27.9149   -0.6208   -6.5071 C.2       4 UNK         0.4946 
     21 O          28.2273    0.0678   -7.4785 O.2       4 UNK        -0.5353 
     22 CA         27.4479   -2.0658   -6.7361 C.3       4 UNK         0.0277 
     23 CB         28.5984   -3.0633   -6.5233 C.3       4 UNK        -0.1981 
     24 N          26.3105   -2.3957   -5.8724 N.am      4 UNK        -0.4209 
     25 C          25.0672   -1.9257   -6.0637 C.2       3 UNK         0.4942 
     26 O          24.7348   -1.2642   -7.0458 O.2       3 UNK        -0.5208 
     27 CA         24.0248   -2.1983   -4.9649 C.3       3 UNK         0.0250 
     28 CB         23.2135   -3.4650   -5.2779 C.3       3 UNK        -0.1990 
     29 N          24.6188   -2.2988   -3.6291 N.am      3 UNK        -0.4232 
     30 C          25.1053   -1.2485   -2.9494 C.2       2 UNK         0.4993 
     31 O          25.0657   -0.0908   -3.3667 O.2       2 UNK        -0.5286 
     32 CA         25.8174   -1.5407   -1.6146 C.3       2 UNK         0.0209 
     33 CB         24.8105   -1.5505   -0.4544 C.3       2 UNK        -0.1931 
     34 N          26.5738   -2.7986   -1.6218 N.am      2 UNK        -0.4546 
     35 C          27.5718   -3.0647   -2.4754 C.2       1 UNK         0.5154 
     36 O          27.9782   -2.2484   -3.3037 O.2       1 UNK        -0.5181 
     37 C          27.0966    2.1715   -5.4996 C.2       5 UNK         0.5014 
     38 O          27.5029    3.1399   -6.1453 O.2       5 UNK        -0.5248 
     39 N          25.8021    1.8349   -5.3797 N.am      6 UNK        -0.4434 
     40 CA         24.6741    2.5507   -5.9869 C.3       6 UNK         0.0363 
     41 CB         23.3565    1.9126   -5.5214 C.3       6 UNK        -0.1936 
     42 C          24.7203    2.6175   -7.5251 C.2       6 UNK         0.5081 
     43 O          24.2062    3.5767   -8.0994 O.2       6 UNK        -0.5248 
     44 N          25.3752    1.6399   -8.1652 N.am      7 UNK        -0.4718 
     45 CA         25.6582    1.5962   -9.6033 C.3       7 UNK         0.0273 
     46 CB         25.7513    0.1242  -10.0445 C.3       7 UNK        -0.1935 
     47 C          26.9159    2.4042   -9.9974 C.2       7 UNK         0.5018 
     48 O          27.5424    2.0882  -11.0096 O.2       7 UNK        -0.5186 
     49 N          27.2550    3.4319   -9.2039 N.am      8 UNK        -0.4240 
     50 CA         28.3986    4.3407   -9.3320 C.3       8 UNK         0.0235 
     51 CB         28.3215    5.1614  -10.6382 C.3       8 UNK        -0.2000 
     52 C          29.7429    3.6170   -9.1391 C.2       8 UNK         0.4941 
     53 O          30.6554    3.7857   -9.9505 O.2       8 UNK        -0.5273 
     54 N          29.8306    2.8369   -8.0505 N.am      9 UNK        -0.4262 
     55 CA         30.9905    2.0469   -7.6171 C.3       9 UNK         0.0264 
     56 CB         32.1345    2.9671   -7.1424 C.3       9 UNK        -0.1955 
     57 C          31.4376    1.0163   -8.6686 C.2       9 UNK         0.5031 
     58 O          32.6145    0.9646   -9.0328 O.2       9 UNK        -0.5390 
     59 N          30.4940    0.1749   -9.1091 N.am      10 UNK        -0.4204 
     60 CA         30.6966   -0.9288  -10.0559 C.3       10 UNK         0.0237 
     61 CB         29.3451   -1.2649  -10.7131 C.3       10 UNK        -0.1985 
     62 C          31.3511   -2.1640   -9.3966 C.2       10 UNK         0.4970 
     63 O          30.9369   -3.2955   -9.6546 O.2       10 UNK        -0.4914 
     64 N          32.3361   -1.9221   -8.5286 N.am      11 UNK        -0.4285 
     65 CA         33.0499   -2.9210   -7.7288 C.3       11 UNK         0.1007 
     66 C          34.1654   -3.6302   -8.5408 C.2       11 UNK         0.5703 
     67 N          34.5153   -4.8543   -8.1697 N.am      11 UNK        -0.7361 
     68 O          34.7386   -3.0764   -9.4780 O.2       11 UNK        -0.4986 
     69 C69        33.6094   -2.2826   -6.4308 C.3       12 UNK        -0.0947 
     70 S70        32.2748   -1.6103   -5.3863 S.3       12 UNK        -0.2240 
     71 C71        33.1936   -1.1484   -3.8873 C.3       12 UNK         0.0194 
     72 H72        25.3598   -7.0428   -5.0588 H         1 UNK         0.0906 
     73 H73        25.8155   -5.6306   -6.0168 H         1 UNK         0.0906 
     74 H74        27.0347   -6.8234   -5.5609 H         1 UNK         0.0906 
     75 H75        28.3958   -5.5677   -4.2667 H         1 UNK         0.3140 
     76 H76        27.7803   -5.0210   -1.5887 H         1 UNK         0.1085 
     77 H77        30.0847   -5.3824   -2.9204 H         1 UNK         0.0836 
     78 H78        30.1209   -3.6646   -3.0153 H         1 UNK         0.0836 
     79 H79        30.6961   -2.7885    0.8670 H         1 UNK         0.0731 
     80 H80        29.1568   -2.6626    0.0599 H         1 UNK         0.0731 
     81 H81        32.1925   -2.9070   -2.0986 H         1 UNK         0.1312 
     82 H82        32.0429    1.2316   -3.1851 H         1 UNK         0.1406 
     83 H83        29.5289   -0.2454   -0.0430 H         1 UNK         0.1631 
     84 H84        30.9691    2.7176   -1.0658 H         1 UNK         0.0717 
     85 H85        29.4488    2.0431   -0.5372 H         1 UNK         0.0717 
     86 H86        27.1783    1.6365   -2.8789 H         1 UNK         0.0934 
     87 H87        28.4577    0.4687   -2.8290 H         1 UNK         0.0934 
     88 H88        29.0955    1.4773   -5.2351 H         1 UNK         0.0739 
     89 H89        27.7252   -0.8423   -4.4985 H         1 UNK         0.3093 
     90 H90        27.1230   -2.1489   -7.7756 H         1 UNK         0.0818 
     91 H91        29.0133   -3.0117   -5.5172 H         1 UNK         0.0819 
     92 H92        28.2749   -4.0880   -6.7044 H         1 UNK         0.0819 
     93 H93        29.4172   -2.8576   -7.2131 H         1 UNK         0.0819 
     94 H94        26.5212   -2.8712   -5.0067 H         1 UNK         0.3041 
     95 H95        23.3300   -1.3560   -4.9590 H         1 UNK         0.0784 
     96 H96        22.7227   -3.3814   -6.2486 H         1 UNK         0.0793 
     97 H97        23.8396   -4.3555   -5.3073 H         1 UNK         0.0793 
     98 H98        22.4333   -3.6293   -4.5345 H         1 UNK         0.0793 
     99 H99        24.7336   -3.2326   -3.2455 H         1 UNK         0.3024 
    100 H100       26.5282   -0.7290   -1.4444 H         1 UNK         0.1171 
    101 H101       25.3130   -1.6614    0.5066 H         1 UNK         0.0786 
    102 H102       24.2488   -0.6157   -0.4182 H         1 UNK         0.0786 
    103 H103       24.0878   -2.3616   -0.5524 H         1 UNK         0.0786 
    104 H104       26.2481   -3.5301   -1.0055 H         1 UNK         0.2977 
    105 H105       25.5627    1.0437   -4.7843 H         1 UNK         0.3127 
    106 H106       24.7068    3.5772   -5.6164 H         1 UNK         0.0770 
    107 H107       23.2633    0.8854   -5.8742 H         1 UNK         0.0814 
    108 H108       22.4982    2.4669   -5.9034 H         1 UNK         0.0814 
    109 H109       23.2791    1.9036   -4.4340 H         1 UNK         0.0814 
    110 H110       25.7603    0.8831   -7.6148 H         1 UNK         0.2983 
    111 H111       24.8202    2.0482  -10.1382 H         1 UNK         0.0947 
    112 H112       25.8838    0.0403  -11.1239 H         1 UNK         0.0806 
    113 H113       24.8448   -0.4244   -9.7879 H         1 UNK         0.0806 
    114 H114       26.5915   -0.3820   -9.5711 H         1 UNK         0.0806 
    115 H115       26.6929    3.5682   -8.3739 H         1 UNK         0.3000 
    116 H116       28.3162    5.0448   -8.5023 H         1 UNK         0.0850 
    117 H117       29.1019    5.9228  -10.6648 H         1 UNK         0.0810 
    118 H118       27.3647    5.6753  -10.7284 H         1 UNK         0.0810 
    119 H119       28.4517    4.5356  -11.5216 H         1 UNK         0.0810 
    120 H120       29.0059    2.7713   -7.4606 H         1 UNK         0.3040 
    121 H121       30.6738    1.4607   -6.7562 H         1 UNK         0.0766 
    122 H122       31.7974    3.6454   -6.3587 H         1 UNK         0.0812 
    123 H123       32.5372    3.5682   -7.9583 H         1 UNK         0.0812 
    124 H124       32.9588    2.3826   -6.7316 H         1 UNK         0.0812 
    125 H125       29.5721    0.2347   -8.6752 H         1 UNK         0.3205 
    126 H126       31.3753   -0.5890  -10.8408 H         1 UNK         0.0754 
    127 H127       29.4634   -2.0145  -11.4966 H         1 UNK         0.0769 
    128 H128       28.8978   -0.3842  -11.1747 H         1 UNK         0.0769 
    129 H129       28.6349   -1.6598   -9.9858 H         1 UNK         0.0769 
    130 H130       32.6577   -0.9652   -8.4397 H         1 UNK         0.2981 
    131 H131       32.3281   -3.6874   -7.4380 H         1 UNK         0.0541 
    132 H132       34.0611   -5.3157   -7.3969 H         1 UNK         0.3459 
    133 H133       35.2468   -5.3287   -8.6758 H         1 UNK         0.3459 
    134 H134       34.1571   -3.0238   -5.8460 H         1 UNK         0.0612 
    135 H135       34.3142   -1.4817   -6.6623 H         1 UNK         0.0612 
    136 H136       33.8731   -1.9545   -3.6063 H         1 UNK         0.0624 
    137 H137       33.8103   -0.2720   -4.0920 H         1 UNK         0.0624 
@<TRIPOS>BOND
     1    1    2 1    
     2    1   72 1    
     3    1   73 1    
     4    1   74 1    
     5    2    3 2    
     6    2    4 am   BACKBONE|DICT|INTERRES
     7    4    5 1    
     8    4   75 1    
     9    5    6 1    
    10    5   35 1    
    11    5   76 1    
    12    6    7 1    
    13    6   77 1    
    14    6   78 1    
    15    7    8 1    
    16    8    9 1    
    17    8   79 1    
    18    8   80 1    
    19    9   10 ar   
    20    9   14 ar   
    21   10   11 ar   
    22   10   81 1    
    23   11   12 ar   
    24   11   71 1    
    25   12   13 ar   
    26   12   82 1    
    27   13   14 ar   
    28   13   15 1    
    29   14   83 1    
    30   15   16 1    
    31   15   84 1    
    32   15   85 1    
    33   16   17 1    
    34   17   18 1    
    35   17   86 1    
    36   17   87 1    
    37   18   19 1    
    38   18   37 1    
    39   18   88 1    
    40   19   20 am   BACKBONE|DICT|INTERRES
    41   19   89 1    
    42   20   21 2    
    43   20   22 1    
    44   22   23 1    
    45   22   24 1    
    46   22   90 1    
    47   23   91 1    
    48   23   92 1    
    49   23   93 1    
    50   24   25 am   BACKBONE|DICT|INTERRES
    51   24   94 1    
    52   25   26 2    
    53   25   27 1    
    54   27   28 1    
    55   27   29 1    
    56   27   95 1    
    57   28   96 1    
    58   28   97 1    
    59   28   98 1    
    60   29   30 am   BACKBONE|DICT|INTERRES
    61   29   99 1    
    62   30   31 2    
    63   30   32 1    
    64   32   33 1    
    65   32   34 1    
    66   32  100 1    
    67   33  101 1    
    68   33  102 1    
    69   33  103 1    
    70   34   35 am   BACKBONE|DICT|INTERRES
    71   34  104 1    
    72   35   36 2    
    73   37   38 2    
    74   37   39 am   BACKBONE|DICT|INTERRES
    75   39   40 1    
    76   39  105 1    
    77   40   41 1    
    78   40   42 1    
    79   40  106 1    
    80   41  107 1    
    81   41  108 1    
    82   41  109 1    
    83   42   43 2    
    84   42   44 am   BACKBONE|DICT|INTERRES
    85   44   45 1    
    86   44  110 1    
    87   45   46 1    
    88   45   47 1    
    89   45  111 1    
    90   46  112 1    
    91   46  113 1    
    92   46  114 1    
    93   47   48 2    
    94   47   49 am   BACKBONE|DICT|INTERRES
    95   49   50 1    
    96   49  115 1    
    97   50   51 1    
    98   50   52 1    
    99   50  116 1    
   100   51  117 1    
   101   51  118 1    
   102   51  119 1    
   103   52   53 2    
   104   52   54 am   BACKBONE|DICT|INTERRES
   105   54   55 1    
   106   54  120 1    
   107   55   56 1    
   108   55   57 1    
   109   55  121 1    
   110   56  122 1    
   111   56  123 1    
   112   56  124 1    
   113   57   58 2    
   114   57   59 am   BACKBONE|DICT|INTERRES
   115   59   60 1    
   116   59  125 1    
   117   60   61 1    
   118   60   62 1    
   119   60  126 1    
   120   61  127 1    
   121   61  128 1    
   122   61  129 1    
   123   62   63 2    
   124   62   64 am   BACKBONE|DICT|INTERRES
   125   64   65 1    
   126   64  130 1    
   127   65   66 1    
   128   65   69 1    
   129   65  131 1    
   130   66   67 am   BACKBONE|DICT|INTERRES
   131   66   68 2    
   132   67  132 1    
   133   67  133 1    
   134   69   70 1    
   135   69  134 1    
   136   69  135 1    
   137   70   71 1    
   138   71  136 1    
   139   71  137 1    
@<TRIPOS>SUBSTRUCTURE
     1 UNK         1 GROUP             0       ****    0 ROOT    
