@<TRIPOS>MOLECULE
3R137
137   139    1
SMALL
USER_CHARGES


@<TRIPOS>ATOM
      1 CA         25.3619   -8.2298   -1.4471 C.3       0 UNK        -0.2020 
      2 C          26.2262   -6.9956   -1.2389 C.2       0 UNK         0.4855 
      3 O          26.9866   -6.9363   -0.2726 O.2       0 UNK        -0.5197 
      4 N          26.1149   -6.0075   -2.1366 N.am      1 UNK        -0.4892 
      5 CA         26.8787   -4.7521   -2.1008 C.3       1 UNK         0.0835 
      6 C6         26.8826   -4.0460   -3.4811 C.3       12 UNK        -0.0855 
      7 S7         27.8176   -4.9739   -4.7460 S.3       12 UNK        -0.2931 
      8 C8         29.5530   -4.7279   -4.2324 C.3       12 UNK         0.0378 
      9 C9         30.0433   -3.3039   -4.4564 C.ar      12 UNK        -0.0802 
     10 C10        30.7283   -2.9747   -5.6293 C.ar      12 UNK        -0.0944 
     11 C11        31.2237   -1.6821   -5.8237 C.ar      12 UNK        -0.0787 
     12 C12        30.9974   -0.7031   -4.8518 C.ar      12 UNK        -0.0862 
     13 C13        30.3045   -1.0177   -3.6788 C.ar      12 UNK        -0.0733 
     14 C14        29.8509   -2.3239   -3.4775 C.ar      12 UNK        -0.0832 
     15 C15        30.0523    0.0428   -2.6176 C.3       12 UNK         0.0240 
     16 S16        28.3784    0.7491   -2.7555 S.3       12 UNK        -0.2522 
     17 C17        28.5334    1.7797   -4.2534 C.3       12 UNK        -0.0967 
     18 CA         27.7564    1.1972   -5.4592 C.3       5 UNK         0.0660 
     19 N          26.3155    1.0908   -5.1867 N.am      5 UNK        -0.4015 
     20 C          25.3935    0.6013   -6.0287 C.2       4 UNK         0.4946 
     21 O          25.6630    0.1763   -7.1541 O.2       4 UNK        -0.5353 
     22 CA         23.9236    0.6671   -5.5672 C.3       4 UNK         0.0277 
     23 CB         23.0177   -0.3423   -6.3058 C.3       4 UNK        -0.1981 
     24 N          23.7444    0.5713   -4.1111 N.am      4 UNK        -0.4209 
     25 C          23.9830   -0.4989   -3.3396 C.2       3 UNK         0.4942 
     26 O          24.4550   -1.5626   -3.7511 O.2       3 UNK        -0.5208 
     27 CA         23.6013   -0.3603   -1.8588 C.3       3 UNK         0.0250 
     28 CB         22.0876   -0.1199   -1.6801 C.3       3 UNK        -0.1990 
     29 N          23.9906   -1.5877   -1.1762 N.am      3 UNK        -0.4232 
     30 C          24.1863   -1.7504    0.1357 C.2       2 UNK         0.4993 
     31 O          24.0323   -0.8558    0.9683 O.2       2 UNK        -0.5286 
     32 CA         24.6190   -3.1518    0.6062 C.3       2 UNK         0.0209 
     33 CB         23.4278   -3.9036    1.2233 C.3       2 UNK        -0.1931 
     34 N          25.2029   -3.9768   -0.4582 N.am      2 UNK        -0.4546 
     35 C          26.4184   -3.7834   -0.9909 C.2       1 UNK         0.5154 
     36 O          27.1773   -2.8814   -0.6336 O.2       1 UNK        -0.5181 
     37 C          28.0641    2.0193   -6.7293 C.2       5 UNK         0.5014 
     38 O          28.9713    1.6603   -7.4792 O.2       5 UNK        -0.5248 
     39 N          27.2844    3.0846   -6.9672 N.am      6 UNK        -0.4434 
     40 CA         27.3793    3.9357   -8.1559 C.3       6 UNK         0.0363 
     41 CB         26.5724    5.2231   -7.9234 C.3       6 UNK        -0.1936 
     42 C          26.9181    3.2406   -9.4503 C.2       6 UNK         0.5081 
     43 O          27.4104    3.5926  -10.5220 O.2       6 UNK        -0.5248 
     44 N          25.9931    2.2754   -9.3389 N.am      7 UNK        -0.4718 
     45 CA         25.5278    1.4563  -10.4612 C.3       7 UNK         0.0273 
     46 CB         24.1266    0.9007  -10.1637 C.3       7 UNK        -0.1935 
     47 C          26.5131    0.3184  -10.7663 C.2       7 UNK         0.5018 
     48 O          26.7180    0.0018  -11.9387 O.2       7 UNK        -0.5186 
     49 N          27.1206   -0.2545   -9.7147 N.am      8 UNK        -0.4240 
     50 CA         28.2227   -1.2164   -9.8130 C.3       8 UNK         0.0235 
     51 CB         28.5149   -1.8136   -8.4263 C.3       8 UNK        -0.2000 
     52 C          29.4833   -0.5842  -10.4352 C.2       8 UNK         0.4941 
     53 O          30.0770   -1.1921  -11.3270 O.2       8 UNK        -0.5273 
     54 N          29.7989    0.6436   -9.9920 N.am      9 UNK        -0.4262 
     55 CA         30.8371    1.5711  -10.4555 C.3       9 UNK         0.0264 
     56 CB         30.7111    1.8524  -11.9665 C.3       9 UNK        -0.1955 
     57 C          32.2675    1.1523  -10.0748 C.2       9 UNK         0.5031 
     58 O          32.5675   -0.0360   -9.9552 O.2       9 UNK        -0.5390 
     59 N          33.1327    2.1638   -9.9091 N.am      10 UNK        -0.4204 
     60 CA         34.5251    2.0712   -9.4541 C.3       10 UNK         0.0237 
     61 CB         35.4032    1.3167  -10.4812 C.3       10 UNK        -0.1985 
     62 C          34.6085    1.5347   -8.0098 C.2       10 UNK         0.4970 
     63 O          33.9033    2.0578   -7.1448 O.2       10 UNK        -0.4914 
     64 N          35.4742    0.5407   -7.7707 N.am      11 UNK        -0.4285 
     65 CA         35.7403   -0.0977   -6.4667 C.3       11 UNK         0.1007 
     66 C          36.4818    0.8101   -5.4370 C.2       11 UNK         0.5703 
     67 N          37.0813    1.9226   -5.8456 N.am      11 UNK        -0.7361 
     68 O          36.5488    0.4880   -4.2528 O.2       11 UNK        -0.4986 
     69 C69        34.4964   -0.8038   -5.8496 C.3       12 UNK        -0.0947 
     70 S70        33.7129   -1.9970   -6.9873 S.3       12 UNK        -0.2240 
     71 C71        32.0120   -1.3531   -7.0815 C.3       12 UNK         0.0194 
     72 H72        24.7397   -8.1476   -2.3380 H         1 UNK         0.0906 
     73 H73        25.9904   -9.1137   -1.5536 H         1 UNK         0.0906 
     74 H74        24.7073   -8.3787   -0.5888 H         1 UNK         0.0906 
     75 H75        25.4952   -6.1198   -2.9272 H         1 UNK         0.3140 
     76 H76        27.9066   -5.0049   -1.8382 H         1 UNK         0.1085 
     77 H77        27.2755   -3.0311   -3.4239 H         1 UNK         0.0836 
     78 H78        25.8593   -3.9266   -3.8415 H         1 UNK         0.0836 
     79 H79        30.1751   -5.4204   -4.8015 H         1 UNK         0.0731 
     80 H80        29.6879   -5.0107   -3.1887 H         1 UNK         0.0731 
     81 H81        30.8978   -3.7304   -6.3842 H         1 UNK         0.1312 
     82 H82        31.3686    0.3006   -5.0068 H         1 UNK         0.1406 
     83 H83        29.3372   -2.5705   -2.5580 H         1 UNK         0.1631 
     84 H84        30.7972    0.8380   -2.6767 H         1 UNK         0.0717 
     85 H85        30.1629   -0.4006   -1.6268 H         1 UNK         0.0717 
     86 H86        28.1717    2.7810   -4.0114 H         1 UNK         0.0934 
     87 H87        29.5903    1.9009   -4.4975 H         1 UNK         0.0934 
     88 H88        28.1195    0.1835   -5.6423 H         1 UNK         0.0739 
     89 H89        26.0151    1.3976   -4.2734 H         1 UNK         0.3093 
     90 H90        23.5777    1.6647   -5.8414 H         1 UNK         0.0818 
     91 H91        22.9827   -0.1295   -7.3734 H         1 UNK         0.0819 
     92 H92        23.3749   -1.3664   -6.1922 H         1 UNK         0.0819 
     93 H93        21.9925   -0.3011   -5.9385 H         1 UNK         0.0819 
     94 H94        23.3594    1.3952   -3.6689 H         1 UNK         0.3041 
     95 H95        24.1643    0.4753   -1.4377 H         1 UNK         0.0784 
     96 H96        21.7704    0.8101   -2.1525 H         1 UNK         0.0793 
     97 H97        21.4997   -0.9272   -2.1190 H         1 UNK         0.0793 
     98 H98        21.8168   -0.0471   -0.6267 H         1 UNK         0.0793 
     99 H99        24.1990   -2.3517   -1.8077 H         1 UNK         0.3024 
    100 H100       25.3752   -3.0097    1.3820 H         1 UNK         0.1171 
    101 H101       22.6393   -4.0820    0.4911 H         1 UNK         0.0786 
    102 H102       23.7342   -4.8673    1.6307 H         1 UNK         0.0786 
    103 H103       22.9881   -3.3329    2.0427 H         1 UNK         0.0786 
    104 H104       24.6508   -4.7506   -0.7995 H         1 UNK         0.2977 
    105 H105       26.5648    3.3160   -6.2980 H         1 UNK         0.3127 
    106 H106       28.4280    4.2106   -8.2902 H         1 UNK         0.0770 
    107 H107       25.5132    5.0148   -7.7669 H         1 UNK         0.0814 
    108 H108       26.6486    5.8907   -8.7830 H         1 UNK         0.0814 
    109 H109       26.9404    5.7724   -7.0566 H         1 UNK         0.0814 
    110 H110       25.6815    1.9973   -8.4178 H         1 UNK         0.2983 
    111 H111       25.4569    2.0865  -11.3509 H         1 UNK         0.0947 
    112 H112       23.7226    0.3869  -11.0370 H         1 UNK         0.0806 
    113 H113       23.4275    1.6948   -9.9016 H         1 UNK         0.0806 
    114 H114       24.1437    0.1797   -9.3474 H         1 UNK         0.0806 
    115 H115       26.8233    0.0170   -8.7822 H         1 UNK         0.3000 
    116 H116       27.8958   -2.0263  -10.4687 H         1 UNK         0.0850 
    117 H117       28.8828   -1.0620   -7.7278 H         1 UNK         0.0810 
    118 H118       29.2717   -2.5957   -8.4934 H         1 UNK         0.0810 
    119 H119       27.6232   -2.2641   -7.9895 H         1 UNK         0.0810 
    120 H120       29.2874    0.9809   -9.1786 H         1 UNK         0.3040 
    121 H121       30.6236    2.5029   -9.9290 H         1 UNK         0.0766 
    122 H122       30.9595    0.9761  -12.5658 H         1 UNK         0.0812 
    123 H123       29.6987    2.1626  -12.2271 H         1 UNK         0.0812 
    124 H124       31.3847    2.6529  -12.2738 H         1 UNK         0.0812 
    125 H125       32.7809    3.1056  -10.0127 H         1 UNK         0.3205 
    126 H126       34.8940    3.0969   -9.4080 H         1 UNK         0.0754 
    127 H127       36.4606    1.3787  -10.2212 H         1 UNK         0.0769 
    128 H128       35.2983    1.7510  -11.4756 H         1 UNK         0.0769 
    129 H129       35.1391    0.2611  -10.5569 H         1 UNK         0.0769 
    130 H130       36.0077    0.1781   -8.5468 H         1 UNK         0.2981 
    131 H131       36.4629   -0.8835   -6.6886 H         1 UNK         0.0541 
    132 H132       37.0519    2.1947   -6.8146 H         1 UNK         0.3459 
    133 H133       37.5679    2.4950   -5.1738 H         1 UNK         0.3459 
    134 H134       33.7655   -0.0644   -5.5220 H         1 UNK         0.0612 
    135 H135       34.7786   -1.3598   -4.9541 H         1 UNK         0.0612 
    136 H136       32.0327   -0.2766   -7.2579 H         1 UNK         0.0624 
    137 H137       31.5202   -1.7942   -7.9489 H         1 UNK         0.0624 
@<TRIPOS>BOND
     1    1    2 1    
     2    1   72 1    
     3    1   73 1    
     4    1   74 1    
     5    2    3 2    
     6    2    4 am   BACKBONE|DICT|INTERRES
     7    4    5 1    
     8    4   75 1    
     9    5    6 1    
    10    5   35 1    
    11    5   76 1    
    12    6    7 1    
    13    6   77 1    
    14    6   78 1    
    15    7    8 1    
    16    8    9 1    
    17    8   79 1    
    18    8   80 1    
    19    9   10 ar   
    20    9   14 ar   
    21   10   11 ar   
    22   10   81 1    
    23   11   12 ar   
    24   11   71 1    
    25   12   13 ar   
    26   12   82 1    
    27   13   14 ar   
    28   13   15 1    
    29   14   83 1    
    30   15   16 1    
    31   15   84 1    
    32   15   85 1    
    33   16   17 1    
    34   17   18 1    
    35   17   86 1    
    36   17   87 1    
    37   18   19 1    
    38   18   37 1    
    39   18   88 1    
    40   19   20 am   BACKBONE|DICT|INTERRES
    41   19   89 1    
    42   20   21 2    
    43   20   22 1    
    44   22   23 1    
    45   22   24 1    
    46   22   90 1    
    47   23   91 1    
    48   23   92 1    
    49   23   93 1    
    50   24   25 am   BACKBONE|DICT|INTERRES
    51   24   94 1    
    52   25   26 2    
    53   25   27 1    
    54   27   28 1    
    55   27   29 1    
    56   27   95 1    
    57   28   96 1    
    58   28   97 1    
    59   28   98 1    
    60   29   30 am   BACKBONE|DICT|INTERRES
    61   29   99 1    
    62   30   31 2    
    63   30   32 1    
    64   32   33 1    
    65   32   34 1    
    66   32  100 1    
    67   33  101 1    
    68   33  102 1    
    69   33  103 1    
    70   34   35 am   BACKBONE|DICT|INTERRES
    71   34  104 1    
    72   35   36 2    
    73   37   38 2    
    74   37   39 am   BACKBONE|DICT|INTERRES
    75   39   40 1    
    76   39  105 1    
    77   40   41 1    
    78   40   42 1    
    79   40  106 1    
    80   41  107 1    
    81   41  108 1    
    82   41  109 1    
    83   42   43 2    
    84   42   44 am   BACKBONE|DICT|INTERRES
    85   44   45 1    
    86   44  110 1    
    87   45   46 1    
    88   45   47 1    
    89   45  111 1    
    90   46  112 1    
    91   46  113 1    
    92   46  114 1    
    93   47   48 2    
    94   47   49 am   BACKBONE|DICT|INTERRES
    95   49   50 1    
    96   49  115 1    
    97   50   51 1    
    98   50   52 1    
    99   50  116 1    
   100   51  117 1    
   101   51  118 1    
   102   51  119 1    
   103   52   53 2    
   104   52   54 am   BACKBONE|DICT|INTERRES
   105   54   55 1    
   106   54  120 1    
   107   55   56 1    
   108   55   57 1    
   109   55  121 1    
   110   56  122 1    
   111   56  123 1    
   112   56  124 1    
   113   57   58 2    
   114   57   59 am   BACKBONE|DICT|INTERRES
   115   59   60 1    
   116   59  125 1    
   117   60   61 1    
   118   60   62 1    
   119   60  126 1    
   120   61  127 1    
   121   61  128 1    
   122   61  129 1    
   123   62   63 2    
   124   62   64 am   BACKBONE|DICT|INTERRES
   125   64   65 1    
   126   64  130 1    
   127   65   66 1    
   128   65   69 1    
   129   65  131 1    
   130   66   67 am   BACKBONE|DICT|INTERRES
   131   66   68 2    
   132   67  132 1    
   133   67  133 1    
   134   69   70 1    
   135   69  134 1    
   136   69  135 1    
   137   70   71 1    
   138   71  136 1    
   139   71  137 1    
@<TRIPOS>SUBSTRUCTURE
     1 UNK         1 GROUP             0       ****    0 ROOT    
