@<TRIPOS>MOLECULE
3R137
137   139    1
SMALL
USER_CHARGES


@<TRIPOS>ATOM
      1 CA         28.5629   -4.9035   -7.7836 C.3       0 UNK        -0.2020 
      2 C          27.9012   -5.4050   -6.5097 C.2       0 UNK         0.4855 
      3 O          27.8619   -6.6135   -6.2783 O.2       0 UNK        -0.5197 
      4 N          27.3878   -4.4851   -5.6868 N.am      1 UNK        -0.4892 
      5 CA         26.6993   -4.7647   -4.4269 C.3       1 UNK         0.0835 
      6 C6         27.5059   -4.2570   -3.2104 C.3       12 UNK        -0.0855 
      7 S7         28.9591   -5.2820   -2.8013 S.3       12 UNK        -0.2931 
      8 C8         30.3367   -4.3596   -3.5732 C.3       12 UNK         0.0378 
      9 C9         30.6830   -2.9919   -2.9743 C.ar      12 UNK        -0.0802 
     10 C10        31.8118   -2.3302   -3.4671 C.ar      12 UNK        -0.0944 
     11 C11        32.1615   -1.0585   -3.0047 C.ar      12 UNK        -0.0787 
     12 C12        31.3476   -0.4213   -2.0636 C.ar      12 UNK        -0.0862 
     13 C13        30.2116   -1.0651   -1.5619 C.ar      12 UNK        -0.0733 
     14 C14        29.9139   -2.3619   -1.9863 C.ar      12 UNK        -0.0832 
     15 C15        29.2828   -0.3586   -0.5805 C.3       12 UNK         0.0240 
     16 S16        27.6109   -0.0908   -1.2765 S.3       12 UNK        -0.2522 
     17 C17        27.9843    0.8732   -2.7787 C.3       12 UNK        -0.0967 
     18 CA         27.7218    0.0422   -4.0723 C.3       5 UNK         0.0660 
     19 N          26.3003   -0.0069   -4.4489 N.am      5 UNK        -0.4015 
     20 C          25.5946    1.0103   -4.9727 C.2       4 UNK         0.4946 
     21 O          26.0469    2.1422   -5.1583 O.2       4 UNK        -0.5353 
     22 CA         24.1448    0.7201   -5.3852 C.3       4 UNK         0.0277 
     23 CB         24.0953   -0.0078   -6.7387 C.3       4 UNK        -0.1981 
     24 N          23.4062   -0.0595   -4.3949 N.am      4 UNK        -0.4209 
     25 C          23.0045    0.3851   -3.1943 C.2       3 UNK         0.4942 
     26 O          23.2493    1.5138   -2.7671 O.2       3 UNK        -0.5208 
     27 CA         22.1487   -0.5709   -2.3372 C.3       3 UNK         0.0250 
     28 CB         20.7081   -0.0449   -2.2160 C.3       3 UNK        -0.1990 
     29 N          22.1111   -1.9309   -2.8841 N.am      3 UNK        -0.4232 
     30 C          23.0727   -2.8423   -2.6955 C.2       2 UNK         0.4993 
     31 O          24.0017   -2.6915   -1.8985 O.2       2 UNK        -0.5286 
     32 CA         23.0009   -4.1260   -3.5504 C.3       2 UNK         0.0209 
     33 CB         22.2045   -3.9611   -4.8669 C.3       2 UNK        -0.1931 
     34 N          24.3385   -4.6647   -3.8282 N.am      2 UNK        -0.4546 
     35 C          25.3470   -4.0391   -4.4550 C.2       1 UNK         0.5154 
     36 O          25.2683   -2.9178   -4.9715 O.2       1 UNK        -0.5181 
     37 C          28.5653    0.4745   -5.2911 C.2       5 UNK         0.5014 
     38 O          28.5676   -0.2412   -6.2955 O.2       5 UNK        -0.5248 
     39 N          29.2102    1.6475   -5.2182 N.am      6 UNK        -0.4434 
     40 CA         30.0354    2.2399   -6.2712 C.3       6 UNK         0.0363 
     41 CB         30.6587    3.5452   -5.7548 C.3       6 UNK        -0.1936 
     42 C          29.3059    2.4821   -7.5998 C.2       6 UNK         0.5081 
     43 O          29.9551    2.4266   -8.6428 O.2       6 UNK        -0.5248 
     44 N          27.9819    2.6919   -7.5620 N.am      7 UNK        -0.4718 
     45 CA         27.1522    2.8377   -8.7625 C.3       7 UNK         0.0273 
     46 CB         25.7773    3.4055   -8.3751 C.3       7 UNK        -0.1935 
     47 C          27.0121    1.5366   -9.5783 C.2       7 UNK         0.5018 
     48 O          26.6799    1.6143  -10.7617 O.2       7 UNK        -0.5186 
     49 N          27.2782    0.3814   -8.9513 N.am      8 UNK        -0.4240 
     50 CA         27.3279   -0.9279   -9.6024 C.3       8 UNK         0.0235 
     51 CB         26.4668   -1.9276   -8.8113 C.3       8 UNK        -0.2000 
     52 C          28.7732   -1.4340   -9.7241 C.2       8 UNK         0.4941 
     53 O          29.1449   -1.9448  -10.7805 O.2       8 UNK        -0.5273 
     54 N          29.5567   -1.3061   -8.6437 N.am      9 UNK        -0.4262 
     55 CA         30.9109   -1.8527   -8.5269 C.3       9 UNK         0.0264 
     56 CB         31.2550   -2.0083   -7.0360 C.3       9 UNK        -0.1955 
     57 C          31.9963   -1.0320   -9.2446 C.2       9 UNK         0.5031 
     58 O          33.0732   -1.5761   -9.4916 O.2       9 UNK        -0.5390 
     59 N          31.7229    0.2497   -9.5384 N.am      10 UNK        -0.4204 
     60 CA         32.6277    1.2304  -10.1598 C.3       10 UNK         0.0237 
     61 CB         33.0161    0.8048  -11.5926 C.3       10 UNK        -0.1985 
     62 C          33.8526    1.5973   -9.2932 C.2       10 UNK         0.4970 
     63 O          34.8421    2.1041   -9.8241 O.2       10 UNK        -0.4914 
     64 N          33.7623    1.3607   -7.9780 N.am      11 UNK        -0.4285 
     65 CA         34.7918    1.6754   -6.9744 C.3       11 UNK         0.1007 
     66 C          34.8752    3.1743   -6.5569 C.2       11 UNK         0.5703 
     67 N          34.0293    4.0600   -7.0697 N.am      11 UNK        -0.7361 
     68 O          35.7404    3.5455   -5.7671 O.2       11 UNK        -0.4986 
     69 C69        34.7061    0.7156   -5.7559 C.3       12 UNK        -0.0947 
     70 S70        33.0676    0.6717   -4.9554 S.3       12 UNK        -0.2240 
     71 C71        33.4230   -0.3852   -3.5234 C.3       12 UNK         0.0194 
     72 H72        29.5776   -5.2935   -7.8596 H         1 UNK         0.0906 
     73 H73        28.0023   -5.2352   -8.6571 H         1 UNK         0.0906 
     74 H74        28.6192   -3.8174   -7.8060 H         1 UNK         0.0906 
     75 H75        27.3672   -3.5116   -5.9587 H         1 UNK         0.3140 
     76 H76        26.5126   -5.8356   -4.3181 H         1 UNK         0.1085 
     77 H77        26.8841   -4.2398   -2.3119 H         1 UNK         0.0836 
     78 H78        27.8041   -3.2242   -3.3832 H         1 UNK         0.0836 
     79 H79        31.2237   -4.9929   -3.5231 H         1 UNK         0.0731 
     80 H80        30.1145   -4.2312   -4.6328 H         1 UNK         0.0731 
     81 H81        32.4253   -2.8083   -4.2188 H         1 UNK         0.1312 
     82 H82        31.5989    0.5756   -1.7279 H         1 UNK         0.1406 
     83 H83        29.0498   -2.8475   -1.5594 H         1 UNK         0.1631 
     84 H84        29.6984    0.6030   -0.2752 H         1 UNK         0.0717 
     85 H85        29.1969   -0.9578    0.3269 H         1 UNK         0.0717 
     86 H86        27.3881    1.7873   -2.7669 H         1 UNK         0.0934 
     87 H87        29.0230    1.1956   -2.7009 H         1 UNK         0.0934 
     88 H88        28.0282   -0.9863   -3.8843 H         1 UNK         0.0739 
     89 H89        25.8591   -0.9184   -4.3977 H         1 UNK         0.3093 
     90 H90        23.6399    1.6820   -5.4997 H         1 UNK         0.0818 
     91 H91        23.0725   -0.0888   -7.1071 H         1 UNK         0.0819 
     92 H92        24.6691    0.5215   -7.4987 H         1 UNK         0.0819 
     93 H93        24.5048   -1.0155   -6.6697 H         1 UNK         0.0819 
     94 H94        23.1894   -1.0123   -4.6455 H         1 UNK         0.3041 
     95 H95        22.5876   -0.5950   -1.3373 H         1 UNK         0.0784 
     96 H96        20.6920    0.9530   -1.7752 H         1 UNK         0.0793 
     97 H97        20.2174    0.0209   -3.1880 H         1 UNK         0.0793 
     98 H98        20.1033   -0.6881   -1.5764 H         1 UNK         0.0793 
     99 H99        21.3620   -2.1403   -3.5290 H         1 UNK         0.3024 
    100 H100       22.4870   -4.8683   -2.9370 H         1 UNK         0.1171 
    101 H101       22.2304   -4.8788   -5.4548 H         1 UNK         0.0786 
    102 H102       22.6039   -3.1621   -5.4927 H         1 UNK         0.0786 
    103 H103       21.1529   -3.7438   -4.6769 H         1 UNK         0.0786 
    104 H104       24.5319   -5.5599   -3.4007 H         1 UNK         0.2977 
    105 H105       29.1019    2.1980   -4.3796 H         1 UNK         0.3127 
    106 H106       30.8375    1.5352   -6.4888 H         1 UNK         0.0770 
    107 H107       29.8971    4.2604   -5.4420 H         1 UNK         0.0814 
    108 H108       31.2553    4.0279   -6.5292 H         1 UNK         0.0814 
    109 H109       31.3200    3.3621   -4.9075 H         1 UNK         0.0814 
    110 H110       27.5032    2.6865   -6.6669 H         1 UNK         0.2983 
    111 H111       27.6388    3.5648   -9.4167 H         1 UNK         0.0947 
    112 H112       25.1446    3.5339   -9.2545 H         1 UNK         0.0806 
    113 H113       25.8736    4.3828   -7.9020 H         1 UNK         0.0806 
    114 H114       25.2456    2.7541   -7.6837 H         1 UNK         0.0806 
    115 H115       27.5698    0.4163   -7.9810 H         1 UNK         0.3000 
    116 H116       26.9206   -0.8679  -10.6141 H         1 UNK         0.0850 
    117 H117       26.5548   -2.9340   -9.2226 H         1 UNK         0.0810 
    118 H118       25.4128   -1.6563   -8.8600 H         1 UNK         0.0810 
    119 H119       26.7528   -1.9729   -7.7598 H         1 UNK         0.0810 
    120 H120       29.1676   -0.8950   -7.7948 H         1 UNK         0.3040 
    121 H121       30.9163   -2.8482   -8.9765 H         1 UNK         0.0766 
    122 H122       32.2554   -2.4220   -6.9017 H         1 UNK         0.0812 
    123 H123       30.5575   -2.6788   -6.5352 H         1 UNK         0.0812 
    124 H124       31.2246   -1.0526   -6.5136 H         1 UNK         0.0812 
    125 H125       30.8185    0.6252   -9.2726 H         1 UNK         0.3205 
    126 H126       32.0502    2.1512  -10.2485 H         1 UNK         0.0754 
    127 H127       33.5388    1.6088  -12.1122 H         1 UNK         0.0769 
    128 H128       32.1348    0.5586  -12.1852 H         1 UNK         0.0769 
    129 H129       33.6757   -0.0633  -11.5949 H         1 UNK         0.0769 
    130 H130       32.9167    0.9489   -7.6161 H         1 UNK         0.2981 
    131 H131       35.7564    1.4755   -7.4446 H         1 UNK         0.0541 
    132 H132       33.3352    3.7752   -7.7399 H         1 UNK         0.3459 
    133 H133       34.1055    5.0269   -6.7971 H         1 UNK         0.3459 
    134 H134       35.4623    0.9633   -5.0086 H         1 UNK         0.0612 
    135 H135       34.9378   -0.2987   -6.0847 H         1 UNK         0.0612 
    136 H136       34.1563   -1.1440   -3.8013 H         1 UNK         0.0624 
    137 H137       33.8841    0.2159   -2.7385 H         1 UNK         0.0624 
@<TRIPOS>BOND
     1    1    2 1    
     2    1   72 1    
     3    1   73 1    
     4    1   74 1    
     5    2    3 2    
     6    2    4 am   BACKBONE|DICT|INTERRES
     7    4    5 1    
     8    4   75 1    
     9    5    6 1    
    10    5   35 1    
    11    5   76 1    
    12    6    7 1    
    13    6   77 1    
    14    6   78 1    
    15    7    8 1    
    16    8    9 1    
    17    8   79 1    
    18    8   80 1    
    19    9   10 ar   
    20    9   14 ar   
    21   10   11 ar   
    22   10   81 1    
    23   11   12 ar   
    24   11   71 1    
    25   12   13 ar   
    26   12   82 1    
    27   13   14 ar   
    28   13   15 1    
    29   14   83 1    
    30   15   16 1    
    31   15   84 1    
    32   15   85 1    
    33   16   17 1    
    34   17   18 1    
    35   17   86 1    
    36   17   87 1    
    37   18   19 1    
    38   18   37 1    
    39   18   88 1    
    40   19   20 am   BACKBONE|DICT|INTERRES
    41   19   89 1    
    42   20   21 2    
    43   20   22 1    
    44   22   23 1    
    45   22   24 1    
    46   22   90 1    
    47   23   91 1    
    48   23   92 1    
    49   23   93 1    
    50   24   25 am   BACKBONE|DICT|INTERRES
    51   24   94 1    
    52   25   26 2    
    53   25   27 1    
    54   27   28 1    
    55   27   29 1    
    56   27   95 1    
    57   28   96 1    
    58   28   97 1    
    59   28   98 1    
    60   29   30 am   BACKBONE|DICT|INTERRES
    61   29   99 1    
    62   30   31 2    
    63   30   32 1    
    64   32   33 1    
    65   32   34 1    
    66   32  100 1    
    67   33  101 1    
    68   33  102 1    
    69   33  103 1    
    70   34   35 am   BACKBONE|DICT|INTERRES
    71   34  104 1    
    72   35   36 2    
    73   37   38 2    
    74   37   39 am   BACKBONE|DICT|INTERRES
    75   39   40 1    
    76   39  105 1    
    77   40   41 1    
    78   40   42 1    
    79   40  106 1    
    80   41  107 1    
    81   41  108 1    
    82   41  109 1    
    83   42   43 2    
    84   42   44 am   BACKBONE|DICT|INTERRES
    85   44   45 1    
    86   44  110 1    
    87   45   46 1    
    88   45   47 1    
    89   45  111 1    
    90   46  112 1    
    91   46  113 1    
    92   46  114 1    
    93   47   48 2    
    94   47   49 am   BACKBONE|DICT|INTERRES
    95   49   50 1    
    96   49  115 1    
    97   50   51 1    
    98   50   52 1    
    99   50  116 1    
   100   51  117 1    
   101   51  118 1    
   102   51  119 1    
   103   52   53 2    
   104   52   54 am   BACKBONE|DICT|INTERRES
   105   54   55 1    
   106   54  120 1    
   107   55   56 1    
   108   55   57 1    
   109   55  121 1    
   110   56  122 1    
   111   56  123 1    
   112   56  124 1    
   113   57   58 2    
   114   57   59 am   BACKBONE|DICT|INTERRES
   115   59   60 1    
   116   59  125 1    
   117   60   61 1    
   118   60   62 1    
   119   60  126 1    
   120   61  127 1    
   121   61  128 1    
   122   61  129 1    
   123   62   63 2    
   124   62   64 am   BACKBONE|DICT|INTERRES
   125   64   65 1    
   126   64  130 1    
   127   65   66 1    
   128   65   69 1    
   129   65  131 1    
   130   66   67 am   BACKBONE|DICT|INTERRES
   131   66   68 2    
   132   67  132 1    
   133   67  133 1    
   134   69   70 1    
   135   69  134 1    
   136   69  135 1    
   137   70   71 1    
   138   71  136 1    
   139   71  137 1    
@<TRIPOS>SUBSTRUCTURE
     1 UNK         1 GROUP             0       ****    0 ROOT    
