@<TRIPOS>MOLECULE
3R137
137   139    1
SMALL
USER_CHARGES


@<TRIPOS>ATOM
      1 CA         23.8748   -6.3774   -4.8805 C.3       0 UNK        -0.2020 
      2 C          24.5755   -5.2045   -4.2147 C.2       0 UNK         0.4855 
      3 O          24.0054   -4.1144   -4.1437 O.2       0 UNK        -0.5197 
      4 N          25.7964   -5.4217   -3.7011 N.am      1 UNK        -0.4892 
      5 CA         26.6950   -4.4175   -3.0994 C.3       1 UNK         0.0835 
      6 C6         27.2663   -3.4321   -4.1561 C.3       12 UNK        -0.0855 
      7 S7         28.4376   -4.2318   -5.3037 S.3       12 UNK        -0.2931 
      8 C8         30.0164   -4.0978   -4.3946 C.3       12 UNK         0.0378 
      9 C9         30.4579   -2.6522   -4.2104 C.ar      12 UNK        -0.0802 
     10 C10        31.1013   -1.9751   -5.2510 C.ar      12 UNK        -0.0944 
     11 C11        31.4654   -0.6333   -5.1034 C.ar      12 UNK        -0.0787 
     12 C12        31.1906    0.0250   -3.9024 C.ar      12 UNK        -0.0862 
     13 C13        30.5501   -0.6403   -2.8543 C.ar      12 UNK        -0.0733 
     14 C14        30.2044   -1.9854   -3.0065 C.ar      12 UNK        -0.0832 
     15 C15        30.2015    0.1063   -1.5746 C.3       12 UNK         0.0240 
     16 S16        29.1148    1.5355   -1.8933 S.3       12 UNK        -0.2522 
     17 C17        27.5939    0.7358   -2.5207 C.3       12 UNK        -0.0967 
     18 CA         27.4736    0.5838   -4.0646 C.3       5 UNK         0.0660 
     19 N          26.1742   -0.0160   -4.4143 N.am      5 UNK        -0.4015 
     20 C          25.7050   -0.2459   -5.6500 C.2       4 UNK         0.4946 
     21 O          26.3195    0.0592   -6.6696 O.2       4 UNK        -0.5353 
     22 CA         24.3202   -0.8999   -5.8071 C.3       4 UNK         0.0277 
     23 CB         24.3579   -2.0541   -6.8263 C.3       4 UNK        -0.1981 
     24 N          23.7194   -1.3791   -4.5584 N.am      4 UNK        -0.4209 
     25 C          23.0387   -0.6087   -3.6986 C.2       3 UNK         0.4942 
     26 O          22.9727    0.6167   -3.7957 O.2       3 UNK        -0.5208 
     27 CA         22.3080   -1.3077   -2.5440 C.3       3 UNK         0.0250 
     28 CB         20.9765   -1.9008   -3.0345 C.3       3 UNK        -0.1990 
     29 N          23.1163   -2.3697   -1.9413 N.am      3 UNK        -0.4232 
     30 C          23.4379   -2.4401   -0.6407 C.2       2 UNK         0.4993 
     31 O          23.0889   -1.6081    0.1981 O.2       2 UNK        -0.5286 
     32 CA         24.2831   -3.6435   -0.1770 C.3       2 UNK         0.0209 
     33 CB         23.3855   -4.7114    0.4698 C.3       2 UNK        -0.1931 
     34 N          25.0637   -4.2630   -1.2505 N.am      2 UNK        -0.4546 
     35 C          26.0906   -3.6766   -1.8808 C.2       1 UNK         0.5154 
     36 O          26.5491   -2.5878   -1.5338 O.2       1 UNK        -0.5181 
     37 C          27.7746    1.8969   -4.8302 C.2       5 UNK         0.5014 
     38 O          28.8861    2.0749   -5.3310 O.2       5 UNK        -0.5248 
     39 N          26.7650    2.7700   -4.9504 N.am      6 UNK        -0.4434 
     40 CA         26.8564    4.0412   -5.6731 C.3       6 UNK         0.0363 
     41 CB         25.7076    4.9538   -5.2125 C.3       6 UNK        -0.1936 
     42 C          26.8429    3.9019   -7.2092 C.2       6 UNK         0.5081 
     43 O          27.2166    4.8573   -7.8907 O.2       6 UNK        -0.5248 
     44 N          26.3889    2.7551   -7.7326 N.am      7 UNK        -0.4718 
     45 CA         26.1977    2.5090   -9.1648 C.3       7 UNK         0.0273 
     46 CB         24.8013    1.8999   -9.3771 C.3       7 UNK        -0.1935 
     47 C          27.2682    1.5813   -9.7602 C.2       7 UNK         0.5018 
     48 O          27.5660    1.7084  -10.9482 O.2       7 UNK        -0.5186 
     49 N          27.7995    0.6557   -8.9475 N.am      8 UNK        -0.4240 
     50 CA         28.7224   -0.4119   -9.3428 C.3       8 UNK         0.0235 
     51 CB         29.0214   -1.3013   -8.1246 C.3       8 UNK        -0.2000 
     52 C          30.0245    0.0760   -9.9970 C.2       8 UNK         0.4941 
     53 O          30.4408   -0.5074  -10.9981 O.2       8 UNK        -0.5273 
     54 N          30.6362    1.1252   -9.4247 N.am      9 UNK        -0.4262 
     55 CA         31.8138    1.8874   -9.8845 C.3       9 UNK         0.0264 
     56 CB         31.4826    2.6466  -11.1832 C.3       9 UNK        -0.1955 
     57 C          33.1423    1.1143  -10.0453 C.2       9 UNK         0.5031 
     58 O          34.2024    1.6985   -9.8148 O.2       9 UNK        -0.5390 
     59 N          33.0810   -0.1694  -10.4210 N.am      10 UNK        -0.4204 
     60 CA         34.2031   -1.0723  -10.7139 C.3       10 UNK         0.0237 
     61 CB         33.6367   -2.4191  -11.1930 C.3       10 UNK        -0.1985 
     62 C          35.1986   -1.2920   -9.5586 C.2       10 UNK         0.4970 
     63 O          36.3113   -1.7591   -9.8052 O.2       10 UNK        -0.4914 
     64 N          34.7918   -0.9450   -8.3335 N.am      11 UNK        -0.4285 
     65 CA         35.6404   -0.8696   -7.1389 C.3       11 UNK         0.1007 
     66 C          36.7594    0.2150   -7.2023 C.2       11 UNK         0.5703 
     67 N          36.6696    1.2144   -8.0745 N.am      11 UNK        -0.7361 
     68 O          37.7298    0.1376   -6.4524 O.2       11 UNK        -0.4986 
     69 C69        34.7746   -0.7355   -5.8583 C.3       12 UNK        -0.0947 
     70 S70        33.7476    0.7775   -5.8342 S.3       12 UNK        -0.2240 
     71 C71        32.0997    0.1302   -6.2554 C.3       12 UNK         0.0194 
     72 H72        22.9339   -6.5886   -4.3732 H         1 UNK         0.0906 
     73 H73        23.6547   -6.1372   -5.9203 H         1 UNK         0.0906 
     74 H74        24.4829   -7.2815   -4.8619 H         1 UNK         0.0906 
     75 H75        26.1948   -6.3479   -3.7791 H         1 UNK         0.3140 
     76 H76        27.5331   -4.9759   -2.6799 H         1 UNK         0.1085 
     77 H77        27.7570   -2.5745   -3.7027 H         1 UNK         0.0836 
     78 H78        26.4566   -3.0043   -4.7435 H         1 UNK         0.0836 
     79 H79        30.7844   -4.6442   -4.9441 H         1 UNK         0.0731 
     80 H80        29.9243   -4.5971   -3.4291 H         1 UNK         0.0731 
     81 H81        31.2911   -2.4878   -6.1840 H         1 UNK         0.1312 
     82 H82        31.4466    1.0705   -3.7962 H         1 UNK         0.1406 
     83 H83        29.7014   -2.5037   -2.2010 H         1 UNK         0.1631 
     84 H84        31.1224    0.4595   -1.1089 H         1 UNK         0.0717 
     85 H85        29.7214   -0.5536   -0.8502 H         1 UNK         0.0717 
     86 H86        27.5050   -0.2421   -2.0477 H         1 UNK         0.0934 
     87 H87        26.7523    1.3192   -2.1429 H         1 UNK         0.0934 
     88 H88        28.2279   -0.1342   -4.3912 H         1 UNK         0.0739 
     89 H89        25.5880   -0.2897   -3.6399 H         1 UNK         0.3093 
     90 H90        23.6693   -0.1276   -6.2228 H         1 UNK         0.0818 
     91 H91        25.0126   -2.8639   -6.5065 H         1 UNK         0.0819 
     92 H92        23.3644   -2.4736   -6.9845 H         1 UNK         0.0819 
     93 H93        24.7183   -1.7117   -7.7974 H         1 UNK         0.0819 
     94 H94        23.7500   -2.3878   -4.4106 H         1 UNK         0.3041 
     95 H95        22.0788   -0.5371   -1.8048 H         1 UNK         0.0784 
     96 H96        20.3543   -1.1355   -3.5008 H         1 UNK         0.0793 
     97 H97        21.1318   -2.6911   -3.7705 H         1 UNK         0.0793 
     98 H98        20.4051   -2.3229   -2.2076 H         1 UNK         0.0793 
     99 H99        23.4559   -3.0948   -2.5666 H         1 UNK         0.3024 
    100 H100       24.9804   -3.2741    0.5787 H         1 UNK         0.1171 
    101 H101       23.9752   -5.5337    0.8757 H         1 UNK         0.0786 
    102 H102       22.8102   -4.2900    1.2955 H         1 UNK         0.0786 
    103 H103       22.6735   -5.1272   -0.2444 H         1 UNK         0.0786 
    104 H104       24.7458   -5.1577   -1.5949 H         1 UNK         0.2977 
    105 H105       25.8742    2.5443   -4.5312 H         1 UNK         0.3127 
    106 H106       27.7993    4.5215   -5.4020 H         1 UNK         0.0770 
    107 H107       24.7323    4.5260   -5.4486 H         1 UNK         0.0814 
    108 H108       25.7621    5.9278   -5.7012 H         1 UNK         0.0814 
    109 H109       25.7471    5.1317   -4.1377 H         1 UNK         0.0814 
    110 H110       26.1790    1.9804   -7.1121 H         1 UNK         0.2983 
    111 H111       26.2399    3.4493   -9.7191 H         1 UNK         0.0947 
    112 H112       24.6119    1.7154  -10.4355 H         1 UNK         0.0806 
    113 H113       24.0189    2.5703   -9.0210 H         1 UNK         0.0806 
    114 H114       24.6907    0.9484   -8.8549 H         1 UNK         0.0806 
    115 H115       27.4091    0.5753   -8.0101 H         1 UNK         0.3000 
    116 H116       28.2036   -1.0224  -10.0847 H         1 UNK         0.0850 
    117 H117       29.7592   -2.0689   -8.3619 H         1 UNK         0.0810 
    118 H118       28.1231   -1.8149   -7.7805 H         1 UNK         0.0810 
    119 H119       29.4046   -0.7186   -7.2869 H         1 UNK         0.0810 
    120 H120       30.1929    1.4959   -8.5951 H         1 UNK         0.3040 
    121 H121       31.9946    2.6329   -9.1083 H         1 UNK         0.0766 
    122 H122       30.6101    3.2875  -11.0556 H         1 UNK         0.0812 
    123 H123       31.2776    1.9653  -12.0098 H         1 UNK         0.0812 
    124 H124       32.3131    3.2857  -11.4866 H         1 UNK         0.0812 
    125 H125       32.1474   -0.5175  -10.6426 H         1 UNK         0.3205 
    126 H126       34.7674   -0.6256  -11.5347 H         1 UNK         0.0754 
    127 H127       34.4372   -3.1107  -11.4601 H         1 UNK         0.0769 
    128 H128       33.0110   -2.2945  -12.0772 H         1 UNK         0.0769 
    129 H129       33.0336   -2.8987  -10.4210 H         1 UNK         0.0769 
    130 H130       33.8746   -0.5396   -8.2407 H         1 UNK         0.2981 
    131 H131       36.1628   -1.8256   -7.0706 H         1 UNK         0.0541 
    132 H132       35.8569    1.3073   -8.6745 H         1 UNK         0.3459 
    133 H133       37.4008    1.9062   -8.1088 H         1 UNK         0.3459 
    134 H134       35.4076   -0.7321   -4.9693 H         1 UNK         0.0612 
    135 H135       34.1322   -1.6109   -5.7532 H         1 UNK         0.0612 
    136 H136       32.1639   -0.4896   -7.1504 H         1 UNK         0.0624 
    137 H137       31.4530    0.9712   -6.5093 H         1 UNK         0.0624 
@<TRIPOS>BOND
     1    1    2 1    
     2    1   72 1    
     3    1   73 1    
     4    1   74 1    
     5    2    3 2    
     6    2    4 am   BACKBONE|DICT|INTERRES
     7    4    5 1    
     8    4   75 1    
     9    5    6 1    
    10    5   35 1    
    11    5   76 1    
    12    6    7 1    
    13    6   77 1    
    14    6   78 1    
    15    7    8 1    
    16    8    9 1    
    17    8   79 1    
    18    8   80 1    
    19    9   10 ar   
    20    9   14 ar   
    21   10   11 ar   
    22   10   81 1    
    23   11   12 ar   
    24   11   71 1    
    25   12   13 ar   
    26   12   82 1    
    27   13   14 ar   
    28   13   15 1    
    29   14   83 1    
    30   15   16 1    
    31   15   84 1    
    32   15   85 1    
    33   16   17 1    
    34   17   18 1    
    35   17   86 1    
    36   17   87 1    
    37   18   19 1    
    38   18   37 1    
    39   18   88 1    
    40   19   20 am   BACKBONE|DICT|INTERRES
    41   19   89 1    
    42   20   21 2    
    43   20   22 1    
    44   22   23 1    
    45   22   24 1    
    46   22   90 1    
    47   23   91 1    
    48   23   92 1    
    49   23   93 1    
    50   24   25 am   BACKBONE|DICT|INTERRES
    51   24   94 1    
    52   25   26 2    
    53   25   27 1    
    54   27   28 1    
    55   27   29 1    
    56   27   95 1    
    57   28   96 1    
    58   28   97 1    
    59   28   98 1    
    60   29   30 am   BACKBONE|DICT|INTERRES
    61   29   99 1    
    62   30   31 2    
    63   30   32 1    
    64   32   33 1    
    65   32   34 1    
    66   32  100 1    
    67   33  101 1    
    68   33  102 1    
    69   33  103 1    
    70   34   35 am   BACKBONE|DICT|INTERRES
    71   34  104 1    
    72   35   36 2    
    73   37   38 2    
    74   37   39 am   BACKBONE|DICT|INTERRES
    75   39   40 1    
    76   39  105 1    
    77   40   41 1    
    78   40   42 1    
    79   40  106 1    
    80   41  107 1    
    81   41  108 1    
    82   41  109 1    
    83   42   43 2    
    84   42   44 am   BACKBONE|DICT|INTERRES
    85   44   45 1    
    86   44  110 1    
    87   45   46 1    
    88   45   47 1    
    89   45  111 1    
    90   46  112 1    
    91   46  113 1    
    92   46  114 1    
    93   47   48 2    
    94   47   49 am   BACKBONE|DICT|INTERRES
    95   49   50 1    
    96   49  115 1    
    97   50   51 1    
    98   50   52 1    
    99   50  116 1    
   100   51  117 1    
   101   51  118 1    
   102   51  119 1    
   103   52   53 2    
   104   52   54 am   BACKBONE|DICT|INTERRES
   105   54   55 1    
   106   54  120 1    
   107   55   56 1    
   108   55   57 1    
   109   55  121 1    
   110   56  122 1    
   111   56  123 1    
   112   56  124 1    
   113   57   58 2    
   114   57   59 am   BACKBONE|DICT|INTERRES
   115   59   60 1    
   116   59  125 1    
   117   60   61 1    
   118   60   62 1    
   119   60  126 1    
   120   61  127 1    
   121   61  128 1    
   122   61  129 1    
   123   62   63 2    
   124   62   64 am   BACKBONE|DICT|INTERRES
   125   64   65 1    
   126   64  130 1    
   127   65   66 1    
   128   65   69 1    
   129   65  131 1    
   130   66   67 am   BACKBONE|DICT|INTERRES
   131   66   68 2    
   132   67  132 1    
   133   67  133 1    
   134   69   70 1    
   135   69  134 1    
   136   69  135 1    
   137   70   71 1    
   138   71  136 1    
   139   71  137 1    
@<TRIPOS>SUBSTRUCTURE
     1 UNK         1 GROUP             0       ****    0 ROOT    
