@<TRIPOS>MOLECULE
3R137
137   139    1
SMALL
USER_CHARGES


@<TRIPOS>ATOM
      1 CA         26.0685   -6.1177   -4.6761 C.3       0 UNK        -0.2020 
      2 C          25.9382   -5.3722   -3.3567 C.2       0 UNK         0.4855 
      3 O          24.8768   -5.4120   -2.7338 O.2       0 UNK        -0.5197 
      4 N          27.0120   -4.7030   -2.9219 N.am      1 UNK        -0.4892 
      5 CA         27.0465   -3.9083   -1.6904 C.3       1 UNK         0.0835 
      6 C6         28.4785   -3.7647   -1.1146 C.3       12 UNK        -0.0855 
      7 S7         29.2540   -5.3787   -0.7461 S.3       12 UNK        -0.2931 
      8 C8         31.0389   -5.0041   -0.9004 C.3       12 UNK         0.0378 
      9 C9         31.4247   -4.3703   -2.2348 C.ar      12 UNK        -0.0802 
     10 C10        32.3041   -3.2809   -2.2611 C.ar      12 UNK        -0.0944 
     11 C11        32.6225   -2.6552   -3.4706 C.ar      12 UNK        -0.0787 
     12 C12        32.0579   -3.1263   -4.6581 C.ar      12 UNK        -0.0862 
     13 C13        31.1534   -4.1892   -4.6400 C.ar      12 UNK        -0.0733 
     14 C14        30.8739   -4.8349   -3.4344 C.ar      12 UNK        -0.0832 
     15 C15        30.4096   -4.5808   -5.9056 C.3       12 UNK         0.0240 
     16 S16        28.6845   -3.9891   -5.8514 S.3       12 UNK        -0.2522 
     17 C17        28.8789   -2.1911   -5.5885 C.3       12 UNK        -0.0967 
     18 CA         27.8840   -1.3854   -6.4522 C.3       5 UNK         0.0660 
     19 N          26.4982   -1.5418   -5.9953 N.am      5 UNK        -0.4015 
     20 C          25.4356   -1.2805   -6.7693 C.2       4 UNK         0.4946 
     21 O          25.5197   -0.8673   -7.9279 O.2       4 UNK        -0.5353 
     22 CA         24.0493   -1.4853   -6.1381 C.3       4 UNK         0.0277 
     23 CB         23.8172   -2.9598   -5.7683 C.3       4 UNK        -0.1981 
     24 N          23.8098   -0.6443   -4.9630 N.am      4 UNK        -0.4209 
     25 C          23.8373    0.6940   -4.9321 C.2       3 UNK         0.4942 
     26 O          24.1443    1.3929   -5.8943 O.2       3 UNK        -0.5208 
     27 CA         23.4908    1.3840   -3.6012 C.3       3 UNK         0.0250 
     28 CB         21.9751    1.3478   -3.3214 C.3       3 UNK        -0.1990 
     29 N          24.2796    0.8937   -2.4639 N.am      3 UNK        -0.4232 
     30 C          24.2534   -0.3197   -1.8970 C.2       2 UNK         0.4993 
     31 O          23.4569   -1.2130   -2.1976 O.2       2 UNK        -0.5286 
     32 CA         25.3193   -0.5767   -0.8207 C.3       2 UNK         0.0209 
     33 CB         24.7384   -0.3211    0.5797 C.3       2 UNK        -0.1931 
     34 N          25.8734   -1.9327   -0.8712 N.am      2 UNK        -0.4546 
     35 C          26.4393   -2.5148   -1.9391 C.2       1 UNK         0.5154 
     36 O          26.5442   -1.9827   -3.0513 O.2       1 UNK        -0.5181 
     37 C          28.2959    0.0968   -6.5533 C.2       5 UNK         0.5014 
     38 O          29.1793    0.4169   -7.3517 O.2       5 UNK        -0.5248 
     39 N          27.6401    0.9720   -5.7758 N.am      6 UNK        -0.4434 
     40 CA         27.8232    2.4228   -5.8172 C.3       6 UNK         0.0363 
     41 CB         27.1528    3.0725   -4.5963 C.3       6 UNK        -0.1936 
     42 C          27.3013    3.0334   -7.1276 C.2       6 UNK         0.5081 
     43 O          28.0261    3.7997   -7.7602 O.2       6 UNK        -0.5248 
     44 N          26.0827    2.6531   -7.5413 N.am      7 UNK        -0.4718 
     45 CA         25.4664    3.0665   -8.8077 C.3       7 UNK         0.0273 
     46 CB         23.9930    2.6310   -8.8358 C.3       7 UNK        -0.1935 
     47 C          26.2089    2.5249  -10.0394 C.2       7 UNK         0.5018 
     48 O          26.2958    3.2244  -11.0491 O.2       7 UNK        -0.5186 
     49 N          26.7615    1.3093   -9.9217 N.am      8 UNK        -0.4240 
     50 CA         27.6455    0.7018  -10.9200 C.3       8 UNK         0.0235 
     51 CB         27.7637   -0.8037  -10.6307 C.3       8 UNK        -0.2000 
     52 C          29.0472    1.3428  -10.9725 C.2       8 UNK         0.4941 
     53 O          29.7644    1.1135  -11.9469 O.2       8 UNK        -0.5273 
     54 N          29.4213    2.0972   -9.9250 N.am      9 UNK        -0.4262 
     55 CA         30.7367    2.6980   -9.6683 C.3       9 UNK         0.0264 
     56 CB         31.0437    3.8112  -10.6917 C.3       9 UNK        -0.1955 
     57 C          31.8611    1.6481   -9.5647 C.2       9 UNK         0.5031 
     58 O          33.0006    1.9204   -9.9497 O.2       9 UNK        -0.5390 
     59 N          31.5231    0.4602   -9.0433 N.am      10 UNK        -0.4204 
     60 CA         32.3989   -0.7137   -9.0049 C.3       10 UNK         0.0237 
     61 CB         31.5588   -1.9605   -8.6929 C.3       10 UNK        -0.1985 
     62 C          33.5761   -0.5797   -8.0251 C.2       10 UNK         0.4970 
     63 O          34.5881   -1.2558   -8.2127 O.2       10 UNK        -0.4914 
     64 N          33.4347    0.2899   -7.0170 N.am      11 UNK        -0.4285 
     65 CA         34.4979    0.6367   -6.0613 C.3       11 UNK         0.1007 
     66 C          35.5456    1.6464   -6.6178 C.2       11 UNK         0.5703 
     67 N          35.3762    2.2040   -7.8127 N.am      11 UNK        -0.7361 
     68 O          36.5415    1.9228   -5.9532 O.2       11 UNK        -0.4986 
     69 C69        33.9362    1.1034   -4.6876 C.3       12 UNK        -0.0947 
     70 S70        32.6123    0.0402   -4.0191 S.3       12 UNK        -0.2240 
     71 C71        33.5398   -1.4434   -3.5109 C.3       12 UNK         0.0194 
     72 H72        25.7300   -5.4902   -5.4999 H         1 UNK         0.0906 
     73 H73        25.4618   -7.0228   -4.6638 H         1 UNK         0.0906 
     74 H74        27.1003   -6.4111   -4.8680 H         1 UNK         0.0906 
     75 H75        27.8353   -4.6439   -3.5049 H         1 UNK         0.3140 
     76 H76        26.4339   -4.4149   -0.9407 H         1 UNK         0.1085 
     77 H77        28.4643   -3.1889   -0.1870 H         1 UNK         0.0836 
     78 H78        29.1010   -3.1979   -1.8086 H         1 UNK         0.0836 
     79 H79        31.3223   -4.3519   -0.0727 H         1 UNK         0.0731 
     80 H80        31.6051   -5.9277   -0.7741 H         1 UNK         0.0731 
     81 H81        32.7258   -2.9065   -1.3382 H         1 UNK         0.1312 
     82 H82        32.2817   -2.6221   -5.5883 H         1 UNK         0.1406 
     83 H83        30.1759   -5.6609   -3.4233 H         1 UNK         0.1631 
     84 H84        30.4124   -5.6664   -6.0133 H         1 UNK         0.0717 
     85 H85        30.9042   -4.1823   -6.7918 H         1 UNK         0.0717 
     86 H86        28.7538   -1.9689   -4.5275 H         1 UNK         0.0934 
     87 H87        29.9024   -1.9066   -5.8276 H         1 UNK         0.0934 
     88 H88        27.9436   -1.7811   -7.4681 H         1 UNK         0.0739 
     89 H89        26.3672   -1.8429   -5.0328 H         1 UNK         0.3093 
     90 H90        23.3095   -1.2070   -6.8915 H         1 UNK         0.0818 
     91 H91        24.0351   -3.6171   -6.6113 H         1 UNK         0.0819 
     92 H92        24.4478   -3.2709   -4.9350 H         1 UNK         0.0819 
     93 H93        22.7804   -3.1357   -5.4811 H         1 UNK         0.0819 
     94 H94        23.5899   -1.1163   -4.0886 H         1 UNK         0.3041 
     95 H95        23.7660    2.4339   -3.7152 H         1 UNK         0.0784 
     96 H96        21.4213    1.8196   -4.1342 H         1 UNK         0.0793 
     97 H97        21.5953    0.3306   -3.2231 H         1 UNK         0.0793 
     98 H98        21.7288    1.8866   -2.4065 H         1 UNK         0.0793 
     99 H99        24.9735    1.5472   -2.1274 H         1 UNK         0.3024 
    100 H100       26.1517    0.1112   -0.9843 H         1 UNK         0.1171 
    101 H101       24.3404    0.6915    0.6606 H         1 UNK         0.0786 
    102 H102       23.9237   -1.0096    0.8087 H         1 UNK         0.0786 
    103 H103       25.4988   -0.4300    1.3533 H         1 UNK         0.0786 
    104 H104       25.8219   -2.4589   -0.0111 H         1 UNK         0.2977 
    105 H105       26.9205    0.6175   -5.1639 H         1 UNK         0.3127 
    106 H106       28.8952    2.6249   -5.7602 H         1 UNK         0.0770 
    107 H107       26.0742    2.9185   -4.5932 H         1 UNK         0.0814 
    108 H108       27.3251    4.1497   -4.5888 H         1 UNK         0.0814 
    109 H109       27.5541    2.6752   -3.6640 H         1 UNK         0.0814 
    110 H110       25.5170    2.0511   -6.9449 H         1 UNK         0.2983 
    111 H111       25.5024    4.1570   -8.8566 H         1 UNK         0.0947 
    112 H112       23.8922    1.5482   -8.7470 H         1 UNK         0.0806 
    113 H113       23.5124    2.9306   -9.7681 H         1 UNK         0.0806 
    114 H114       23.4305    3.0862   -8.0205 H         1 UNK         0.0806 
    115 H115       26.5793    0.7757   -9.0793 H         1 UNK         0.3000 
    116 H116       27.1888    0.8283  -11.9039 H         1 UNK         0.0850 
    117 H117       28.3471   -1.3051  -11.4041 H         1 UNK         0.0810 
    118 H118       26.7849   -1.2830  -10.6001 H         1 UNK         0.0810 
    119 H119       28.2596   -0.9914   -9.6787 H         1 UNK         0.0810 
    120 H120       28.7489    2.2274   -9.1789 H         1 UNK         0.3040 
    121 H121       30.6682    3.1637   -8.6841 H         1 UNK         0.0766 
    122 H122       31.1884    3.4101  -11.6953 H         1 UNK         0.0812 
    123 H123       31.9533    4.3496  -10.4230 H         1 UNK         0.0812 
    124 H124       30.2361    4.5421  -10.7347 H         1 UNK         0.0812 
    125 H125       30.5896    0.3572   -8.6502 H         1 UNK         0.3205 
    126 H126       32.8274   -0.8387  -10.0016 H         1 UNK         0.0754 
    127 H127       32.1799   -2.8569   -8.6645 H         1 UNK         0.0769 
    128 H128       30.7911   -2.1215   -9.4501 H         1 UNK         0.0769 
    129 H129       31.0630   -1.8722   -7.7290 H         1 UNK         0.0769 
    130 H130       32.5684    0.7990   -6.9285 H         1 UNK         0.2981 
    131 H131       35.0694   -0.2732   -5.8744 H         1 UNK         0.0541 
    132 H132       36.0700    2.8506   -8.1529 H         1 UNK         0.3459 
    133 H133       34.5734    1.9825   -8.3872 H         1 UNK         0.3459 
    134 H134       33.5265    2.1113   -4.7739 H         1 UNK         0.0612 
    135 H135       34.7359    1.1629   -3.9470 H         1 UNK         0.0612 
    136 H136       34.3503   -1.6457   -4.2105 H         1 UNK         0.0624 
    137 H137       34.0021   -1.2627   -2.5394 H         1 UNK         0.0624 
@<TRIPOS>BOND
     1    1    2 1    
     2    1   72 1    
     3    1   73 1    
     4    1   74 1    
     5    2    3 2    
     6    2    4 am   BACKBONE|DICT|INTERRES
     7    4    5 1    
     8    4   75 1    
     9    5    6 1    
    10    5   35 1    
    11    5   76 1    
    12    6    7 1    
    13    6   77 1    
    14    6   78 1    
    15    7    8 1    
    16    8    9 1    
    17    8   79 1    
    18    8   80 1    
    19    9   10 ar   
    20    9   14 ar   
    21   10   11 ar   
    22   10   81 1    
    23   11   12 ar   
    24   11   71 1    
    25   12   13 ar   
    26   12   82 1    
    27   13   14 ar   
    28   13   15 1    
    29   14   83 1    
    30   15   16 1    
    31   15   84 1    
    32   15   85 1    
    33   16   17 1    
    34   17   18 1    
    35   17   86 1    
    36   17   87 1    
    37   18   19 1    
    38   18   37 1    
    39   18   88 1    
    40   19   20 am   BACKBONE|DICT|INTERRES
    41   19   89 1    
    42   20   21 2    
    43   20   22 1    
    44   22   23 1    
    45   22   24 1    
    46   22   90 1    
    47   23   91 1    
    48   23   92 1    
    49   23   93 1    
    50   24   25 am   BACKBONE|DICT|INTERRES
    51   24   94 1    
    52   25   26 2    
    53   25   27 1    
    54   27   28 1    
    55   27   29 1    
    56   27   95 1    
    57   28   96 1    
    58   28   97 1    
    59   28   98 1    
    60   29   30 am   BACKBONE|DICT|INTERRES
    61   29   99 1    
    62   30   31 2    
    63   30   32 1    
    64   32   33 1    
    65   32   34 1    
    66   32  100 1    
    67   33  101 1    
    68   33  102 1    
    69   33  103 1    
    70   34   35 am   BACKBONE|DICT|INTERRES
    71   34  104 1    
    72   35   36 2    
    73   37   38 2    
    74   37   39 am   BACKBONE|DICT|INTERRES
    75   39   40 1    
    76   39  105 1    
    77   40   41 1    
    78   40   42 1    
    79   40  106 1    
    80   41  107 1    
    81   41  108 1    
    82   41  109 1    
    83   42   43 2    
    84   42   44 am   BACKBONE|DICT|INTERRES
    85   44   45 1    
    86   44  110 1    
    87   45   46 1    
    88   45   47 1    
    89   45  111 1    
    90   46  112 1    
    91   46  113 1    
    92   46  114 1    
    93   47   48 2    
    94   47   49 am   BACKBONE|DICT|INTERRES
    95   49   50 1    
    96   49  115 1    
    97   50   51 1    
    98   50   52 1    
    99   50  116 1    
   100   51  117 1    
   101   51  118 1    
   102   51  119 1    
   103   52   53 2    
   104   52   54 am   BACKBONE|DICT|INTERRES
   105   54   55 1    
   106   54  120 1    
   107   55   56 1    
   108   55   57 1    
   109   55  121 1    
   110   56  122 1    
   111   56  123 1    
   112   56  124 1    
   113   57   58 2    
   114   57   59 am   BACKBONE|DICT|INTERRES
   115   59   60 1    
   116   59  125 1    
   117   60   61 1    
   118   60   62 1    
   119   60  126 1    
   120   61  127 1    
   121   61  128 1    
   122   61  129 1    
   123   62   63 2    
   124   62   64 am   BACKBONE|DICT|INTERRES
   125   64   65 1    
   126   64  130 1    
   127   65   66 1    
   128   65   69 1    
   129   65  131 1    
   130   66   67 am   BACKBONE|DICT|INTERRES
   131   66   68 2    
   132   67  132 1    
   133   67  133 1    
   134   69   70 1    
   135   69  134 1    
   136   69  135 1    
   137   70   71 1    
   138   71  136 1    
   139   71  137 1    
@<TRIPOS>SUBSTRUCTURE
     1 UNK         1 GROUP             0       ****    0 ROOT    
