@<TRIPOS>MOLECULE
3R137
137   139    1
SMALL
USER_CHARGES


@<TRIPOS>ATOM
      1 CA         25.0107   -5.1382   -4.1117 C.3       0 UNK        -0.2020 
      2 C          25.3037   -4.0661   -3.0744 C.2       0 UNK         0.4855 
      3 O          24.3767   -3.4879   -2.5071 O.2       0 UNK        -0.5197 
      4 N          26.5887   -3.8042   -2.8080 N.am      1 UNK        -0.4892 
      5 CA         27.0396   -2.8728   -1.7682 C.3       1 UNK         0.0835 
      6 C6         28.5389   -3.0444   -1.4285 C.3       12 UNK        -0.0855 
      7 S7         28.8787   -4.7366   -0.8214 S.3       12 UNK        -0.2931 
      8 C8         30.6874   -4.8896   -1.0228 C.3       12 UNK         0.0378 
      9 C9         31.1793   -4.6129   -2.4402 C.ar      12 UNK        -0.0802 
     10 C10        32.3321   -3.8454   -2.6292 C.ar      12 UNK        -0.0944 
     11 C11        32.7804   -3.5359   -3.9158 C.ar      12 UNK        -0.0787 
     12 C12        32.0646   -3.9999   -5.0232 C.ar      12 UNK        -0.0862 
     13 C13        30.9025   -4.7589   -4.8490 C.ar      12 UNK        -0.0733 
     14 C14        30.4854   -5.0914   -3.5577 C.ar      12 UNK        -0.0832 
     15 C15        30.0573   -5.1603   -6.0520 C.3       12 UNK         0.0240 
     16 S16        28.4547   -4.2805   -6.0799 S.3       12 UNK        -0.2522 
     17 C17        28.9827   -2.5528   -5.8260 C.3       12 UNK        -0.0967 
     18 CA         28.1541   -1.5155   -6.6152 C.3       5 UNK         0.0660 
     19 N          26.7166   -1.5948   -6.3114 N.am      5 UNK        -0.4015 
     20 C          25.7546   -0.7485   -6.7107 C.2       4 UNK         0.4946 
     21 O          25.9641    0.3275   -7.2705 O.2       4 UNK        -0.5353 
     22 CA         24.3075   -1.1752   -6.4634 C.3       4 UNK         0.0277 
     23 CB         24.0351   -2.6360   -6.8718 C.3       4 UNK        -0.1981 
     24 N          23.9350   -0.9392   -5.0700 N.am      4 UNK        -0.4209 
     25 C          22.6998   -0.5922   -4.6791 C.2       3 UNK         0.4942 
     26 O          21.7550   -0.4578   -5.4588 O.2       3 UNK        -0.5208 
     27 CA         22.4435   -0.3582   -3.1792 C.3       3 UNK         0.0250 
     28 CB         21.5222   -1.4502   -2.6087 C.3       3 UNK        -0.1990 
     29 N          23.6654   -0.2939   -2.3757 N.am      3 UNK        -0.4232 
     30 C          24.4255    0.8023   -2.2370 C.2       2 UNK         0.4993 
     31 O          24.1816    1.8757   -2.7878 O.2       2 UNK        -0.5286 
     32 CA         25.6652    0.6944   -1.3292 C.3       2 UNK         0.0209 
     33 CB         25.3685    1.2931    0.0554 C.3       2 UNK        -0.1931 
     34 N          26.1639   -0.6735   -1.1633 N.am      2 UNK        -0.4546 
     35 C          26.6957   -1.4178   -2.1416 C.2       1 UNK         0.5154 
     36 O          26.8811   -1.0074   -3.2921 O.2       1 UNK        -0.5181 
     37 C          28.7886   -0.1271   -6.4139 C.2       5 UNK         0.5014 
     38 O          29.6253    0.2640   -7.2260 O.2       5 UNK        -0.5248 
     39 N          28.3691    0.5915   -5.3630 N.am      6 UNK        -0.4434 
     40 CA         28.8144    1.9523   -5.0467 C.3       6 UNK         0.0363 
     41 CB         28.1733    2.3975   -3.7258 C.3       6 UNK        -0.1936 
     42 C          28.5508    2.9993   -6.1496 C.2       6 UNK         0.5081 
     43 O          29.2490    4.0142   -6.1782 O.2       6 UNK        -0.5248 
     44 N          27.5680    2.7476   -7.0247 N.am      7 UNK        -0.4718 
     45 CA         27.2429    3.5869   -8.1795 C.3       7 UNK         0.0273 
     46 CB         25.8078    4.1169   -8.0249 C.3       7 UNK        -0.1935 
     47 C          27.3890    2.8247   -9.5063 C.2       7 UNK         0.5018 
     48 O          27.8035    3.4247  -10.4986 O.2       7 UNK        -0.5186 
     49 N          27.0214    1.5361   -9.5200 N.am      8 UNK        -0.4240 
     50 CA         26.9603    0.7000  -10.7210 C.3       8 UNK         0.0235 
     51 CB         25.9739   -0.4547  -10.4745 C.3       8 UNK        -0.2000 
     52 C          28.3183    0.1409  -11.1759 C.2       8 UNK         0.4941 
     53 O          28.4191   -0.2841  -12.3283 O.2       8 UNK        -0.5273 
     54 N          29.3189    0.1151  -10.2879 N.am      9 UNK        -0.4262 
     55 CA         30.6506   -0.4298  -10.5466 C.3       9 UNK         0.0264 
     56 CB         30.8009   -1.7543   -9.7707 C.3       9 UNK        -0.1955 
     57 C          31.7245    0.5872  -10.1380 C.2       9 UNK         0.5031 
     58 O          31.4097    1.6510   -9.5976 O.2       9 UNK        -0.5390 
     59 N          32.9930    0.2202  -10.3710 N.am      10 UNK        -0.4204 
     60 CA         34.1883    0.9948  -10.0081 C.3       10 UNK         0.0237 
     61 CB         35.4321    0.2943  -10.5805 C.3       10 UNK        -0.1985 
     62 C          34.3574    1.2439   -8.4949 C.2       10 UNK         0.4970 
     63 O          35.1290    2.1260   -8.1161 O.2       10 UNK        -0.4914 
     64 N          33.6302    0.4827   -7.6665 N.am      11 UNK        -0.4285 
     65 CA         33.4753    0.7092   -6.2243 C.3       11 UNK         0.1007 
     66 C          32.6977    2.0113   -5.8619 C.2       11 UNK         0.5703 
     67 N          31.9541    2.6192   -6.7799 N.am      11 UNK        -0.7361 
     68 O          32.7760    2.4794   -4.7291 O.2       11 UNK        -0.4986 
     69 C69        32.8543   -0.5386   -5.5327 C.3       12 UNK        -0.0947 
     70 S70        33.6397   -0.9066   -3.9286 S.3       12 UNK        -0.2240 
     71 C71        34.0248   -2.6789   -4.0973 C.3       12 UNK         0.0194 
     72 H72        24.0519   -4.9509   -4.5942 H         1 UNK         0.0906 
     73 H73        25.7804   -5.1746   -4.8817 H         1 UNK         0.0906 
     74 H74        24.9589   -6.1150   -3.6319 H         1 UNK         0.0906 
     75 H75        27.3189   -4.2922   -3.3059 H         1 UNK         0.3140 
     76 H76        26.4757   -3.1203   -0.8654 H         1 UNK         0.1085 
     77 H77        29.1523   -2.8246   -2.3035 H         1 UNK         0.0836 
     78 H78        28.8451   -2.3394   -0.6532 H         1 UNK         0.0836 
     79 H79        31.1659   -4.2129   -0.3130 H         1 UNK         0.0731 
     80 H80        30.9886   -5.8986   -0.7388 H         1 UNK         0.0731 
     81 H81        32.8762   -3.4696   -1.7731 H         1 UNK         0.1312 
     82 H82        32.3946   -3.7437   -6.0204 H         1 UNK         0.1406 
     83 H83        29.5876   -5.6793   -3.4245 H         1 UNK         0.1631 
     84 H84        29.8754   -6.2355   -6.0285 H         1 UNK         0.0717 
     85 H85        30.5878   -4.9571   -6.9837 H         1 UNK         0.0717 
     86 H86        28.9482   -2.3430   -4.7549 H         1 UNK         0.0934 
     87 H87        30.0307   -2.4673   -6.1185 H         1 UNK         0.0934 
     88 H88        28.2483   -1.7480   -7.6779 H         1 UNK         0.0739 
     89 H89        26.4387   -2.4350   -5.8280 H         1 UNK         0.3093 
     90 H90        23.6968   -0.5371   -7.1067 H         1 UNK         0.0818 
     91 H91        22.9747   -2.8758   -6.7910 H         1 UNK         0.0819 
     92 H92        24.3257   -2.8109   -7.9087 H         1 UNK         0.0819 
     93 H93        24.5824   -3.3460   -6.2556 H         1 UNK         0.0819 
     94 H94        24.6748   -0.9879   -4.3808 H         1 UNK         0.3041 
     95 H95        21.9192    0.5961   -3.0910 H         1 UNK         0.0784 
     96 H96        20.5685   -1.4717   -3.1379 H         1 UNK         0.0793 
     97 H97        21.9641   -2.4426   -2.6996 H         1 UNK         0.0793 
     98 H98        21.3017   -1.2749   -1.5556 H         1 UNK         0.0793 
     99 H99        23.9503   -1.1513   -1.9200 H         1 UNK         0.3024 
    100 H100       26.4547    1.2870   -1.7897 H         1 UNK         0.1171 
    101 H101       25.0238    2.3247   -0.0310 H         1 UNK         0.0786 
    102 H102       26.2598    1.3044    0.6831 H         1 UNK         0.0786 
    103 H103       24.5930    0.7339    0.5805 H         1 UNK         0.0786 
    104 H104       26.0472   -1.0828   -0.2469 H         1 UNK         0.2977 
    105 H105       27.7048    0.1609   -4.7260 H         1 UNK         0.3127 
    106 H106       29.8938    1.9083   -4.8970 H         1 UNK         0.0770 
    107 H107       27.0851    2.4176   -3.7978 H         1 UNK         0.0814 
    108 H108       28.5014    3.4006   -3.4498 H         1 UNK         0.0814 
    109 H109       28.4556    1.7314   -2.9107 H         1 UNK         0.0814 
    110 H110       27.0467    1.8801   -6.9305 H         1 UNK         0.2983 
    111 H111       27.9175    4.4444   -8.2316 H         1 UNK         0.0947 
    112 H112       25.5271    4.7411   -8.8745 H         1 UNK         0.0806 
    113 H113       25.7076    4.7272   -7.1273 H         1 UNK         0.0806 
    114 H114       25.0822    3.3048   -7.9601 H         1 UNK         0.0806 
    115 H115       26.6605    1.1164   -8.6642 H         1 UNK         0.3000 
    116 H116       26.5691    1.3072  -11.5405 H         1 UNK         0.0850 
    117 H117       25.8298   -1.0449  -11.3805 H         1 UNK         0.0810 
    118 H118       24.9944   -0.0853  -10.1699 H         1 UNK         0.0810 
    119 H119       26.3339   -1.1329   -9.7002 H         1 UNK         0.0810 
    120 H120       29.2006    0.5432   -9.3755 H         1 UNK         0.3040 
    121 H121       30.7841   -0.6266  -11.6123 H         1 UNK         0.0766 
    122 H122       31.7352   -2.2596  -10.0163 H         1 UNK         0.0812 
    123 H123       29.9940   -2.4463  -10.0131 H         1 UNK         0.0812 
    124 H124       30.7885   -1.5982   -8.6919 H         1 UNK         0.0812 
    125 H125       33.1601   -0.6660  -10.8264 H         1 UNK         0.3205 
    126 H126       34.0984    1.9747  -10.4817 H         1 UNK         0.0754 
    127 H127       36.3374    0.8622  -10.3606 H         1 UNK         0.0769 
    128 H128       35.3709    0.1973  -11.6647 H         1 UNK         0.0769 
    129 H129       35.5636   -0.7033  -10.1590 H         1 UNK         0.0769 
    130 H130       33.0122   -0.2006   -8.0742 H         1 UNK         0.2981 
    131 H131       34.4878    0.8494   -5.8405 H         1 UNK         0.0541 
    132 H132       31.8354    2.2183   -7.7045 H         1 UNK         0.3459 
    133 H133       31.4190    3.4355   -6.5226 H         1 UNK         0.3459 
    134 H134       32.9662   -1.4153   -6.1708 H         1 UNK         0.0612 
    135 H135       31.7781   -0.4308   -5.3836 H         1 UNK         0.0612 
    136 H136       34.7646   -2.9484   -3.3421 H         1 UNK         0.0624 
    137 H137       34.4949   -2.8697   -5.0632 H         1 UNK         0.0624 
@<TRIPOS>BOND
     1    1    2 1    
     2    1   72 1    
     3    1   73 1    
     4    1   74 1    
     5    2    3 2    
     6    2    4 am   BACKBONE|DICT|INTERRES
     7    4    5 1    
     8    4   75 1    
     9    5    6 1    
    10    5   35 1    
    11    5   76 1    
    12    6    7 1    
    13    6   77 1    
    14    6   78 1    
    15    7    8 1    
    16    8    9 1    
    17    8   79 1    
    18    8   80 1    
    19    9   10 ar   
    20    9   14 ar   
    21   10   11 ar   
    22   10   81 1    
    23   11   12 ar   
    24   11   71 1    
    25   12   13 ar   
    26   12   82 1    
    27   13   14 ar   
    28   13   15 1    
    29   14   83 1    
    30   15   16 1    
    31   15   84 1    
    32   15   85 1    
    33   16   17 1    
    34   17   18 1    
    35   17   86 1    
    36   17   87 1    
    37   18   19 1    
    38   18   37 1    
    39   18   88 1    
    40   19   20 am   BACKBONE|DICT|INTERRES
    41   19   89 1    
    42   20   21 2    
    43   20   22 1    
    44   22   23 1    
    45   22   24 1    
    46   22   90 1    
    47   23   91 1    
    48   23   92 1    
    49   23   93 1    
    50   24   25 am   BACKBONE|DICT|INTERRES
    51   24   94 1    
    52   25   26 2    
    53   25   27 1    
    54   27   28 1    
    55   27   29 1    
    56   27   95 1    
    57   28   96 1    
    58   28   97 1    
    59   28   98 1    
    60   29   30 am   BACKBONE|DICT|INTERRES
    61   29   99 1    
    62   30   31 2    
    63   30   32 1    
    64   32   33 1    
    65   32   34 1    
    66   32  100 1    
    67   33  101 1    
    68   33  102 1    
    69   33  103 1    
    70   34   35 am   BACKBONE|DICT|INTERRES
    71   34  104 1    
    72   35   36 2    
    73   37   38 2    
    74   37   39 am   BACKBONE|DICT|INTERRES
    75   39   40 1    
    76   39  105 1    
    77   40   41 1    
    78   40   42 1    
    79   40  106 1    
    80   41  107 1    
    81   41  108 1    
    82   41  109 1    
    83   42   43 2    
    84   42   44 am   BACKBONE|DICT|INTERRES
    85   44   45 1    
    86   44  110 1    
    87   45   46 1    
    88   45   47 1    
    89   45  111 1    
    90   46  112 1    
    91   46  113 1    
    92   46  114 1    
    93   47   48 2    
    94   47   49 am   BACKBONE|DICT|INTERRES
    95   49   50 1    
    96   49  115 1    
    97   50   51 1    
    98   50   52 1    
    99   50  116 1    
   100   51  117 1    
   101   51  118 1    
   102   51  119 1    
   103   52   53 2    
   104   52   54 am   BACKBONE|DICT|INTERRES
   105   54   55 1    
   106   54  120 1    
   107   55   56 1    
   108   55   57 1    
   109   55  121 1    
   110   56  122 1    
   111   56  123 1    
   112   56  124 1    
   113   57   58 2    
   114   57   59 am   BACKBONE|DICT|INTERRES
   115   59   60 1    
   116   59  125 1    
   117   60   61 1    
   118   60   62 1    
   119   60  126 1    
   120   61  127 1    
   121   61  128 1    
   122   61  129 1    
   123   62   63 2    
   124   62   64 am   BACKBONE|DICT|INTERRES
   125   64   65 1    
   126   64  130 1    
   127   65   66 1    
   128   65   69 1    
   129   65  131 1    
   130   66   67 am   BACKBONE|DICT|INTERRES
   131   66   68 2    
   132   67  132 1    
   133   67  133 1    
   134   69   70 1    
   135   69  134 1    
   136   69  135 1    
   137   70   71 1    
   138   71  136 1    
   139   71  137 1    
@<TRIPOS>SUBSTRUCTURE
     1 UNK         1 GROUP             0       ****    0 ROOT    
