@<TRIPOS>MOLECULE
3R137
137   139    1
SMALL
USER_CHARGES


@<TRIPOS>ATOM
      1 CA         26.6471   -8.0307   -0.3053 C.3       0 UNK        -0.2020 
      2 C          27.1086   -6.6883    0.2414 C.2       0 UNK         0.4855 
      3 O          27.4521   -6.5914    1.4195 O.2       0 UNK        -0.5197 
      4 N          27.1150   -5.6489   -0.6034 N.am      1 UNK        -0.4892 
      5 CA         27.5242   -4.2818   -0.2505 C.3       1 UNK         0.0835 
      6 C6         27.9714   -3.4889   -1.5050 C.3       12 UNK        -0.0855 
      7 S7         26.6437   -3.2285   -2.7363 S.3       12 UNK        -0.2931 
      8 C8         27.5847   -3.0435   -4.2875 C.3       12 UNK         0.0378 
      9 C9         28.7148   -2.0221   -4.1976 C.ar      12 UNK        -0.0802 
     10 C10        30.0084   -2.3828   -4.5848 C.ar      12 UNK        -0.0944 
     11 C11        31.0561   -1.4612   -4.5150 C.ar      12 UNK        -0.0787 
     12 C12        30.7990   -0.1635   -4.0636 C.ar      12 UNK        -0.0862 
     13 C13        29.5105    0.2196   -3.6749 C.ar      12 UNK        -0.0733 
     14 C14        28.4750   -0.7231   -3.7364 C.ar      12 UNK        -0.0832 
     15 C15        29.2968    1.6388   -3.1439 C.3       12 UNK         0.0240 
     16 S16        27.6040    2.3040   -3.3198 S.3       12 UNK        -0.2522 
     17 C17        27.4506    2.5049   -5.1280 C.3       12 UNK        -0.0967 
     18 CA         26.4595    1.4888   -5.7541 C.3       5 UNK         0.0660 
     19 N          25.1315    1.5564   -5.1353 N.am      5 UNK        -0.4015 
     20 C          24.2435    0.5570   -5.1026 C.2       4 UNK         0.4946 
     21 O          24.3934   -0.5124   -5.7021 O.2       4 UNK        -0.5353 
     22 CA         22.9607    0.8034   -4.2910 C.3       4 UNK         0.0277 
     23 CB         21.8393    1.3222   -5.2057 C.3       4 UNK        -0.1981 
     24 N          22.5160   -0.4249   -3.6294 N.am      4 UNK        -0.4209 
     25 C          23.1809   -1.0311   -2.6365 C.2       3 UNK         0.4942 
     26 O          24.1633   -0.5404   -2.0735 O.2       3 UNK        -0.5208 
     27 CA         22.6605   -2.4218   -2.2321 C.3       3 UNK         0.0250 
     28 CB         22.7716   -3.4156   -3.4042 C.3       3 UNK        -0.1990 
     29 N          23.4134   -2.9622   -1.1005 N.am      3 UNK        -0.4232 
     30 C          23.1260   -2.7601    0.1922 C.2       2 UNK         0.4993 
     31 O          22.1516   -2.1129    0.5799 O.2       2 UNK        -0.5286 
     32 CA         24.0577   -3.4074    1.2356 C.3       2 UNK         0.0209 
     33 CB         23.2998   -4.4706    2.0503 C.3       2 UNK        -0.1931 
     34 N          25.2284   -4.0409    0.6201 N.am      2 UNK        -0.4546 
     35 C          26.4576   -3.5096    0.5632 C.2       1 UNK         0.5154 
     36 O          26.7651   -2.4473    1.1066 O.2       1 UNK        -0.5181 
     37 C          26.3959    1.5957   -7.2920 C.2       5 UNK         0.5014 
     38 O          27.0306    2.4712   -7.8798 O.2       5 UNK        -0.5248 
     39 N          25.6707    0.6697   -7.9328 N.am      6 UNK        -0.4434 
     40 CA         25.6461    0.4848   -9.3892 C.3       6 UNK         0.0363 
     41 CB         24.5506   -0.5297   -9.7524 C.3       6 UNK        -0.1936 
     42 C          27.0093    0.0383   -9.9549 C.2       6 UNK         0.5081 
     43 O          27.3041    0.2970  -11.1213 O.2       6 UNK        -0.5248 
     44 N          27.8284   -0.5924   -9.1023 N.am      7 UNK        -0.4718 
     45 CA         29.1991   -1.0187   -9.3797 C.3       7 UNK         0.0273 
     46 CB         29.5903   -2.0952   -8.3547 C.3       7 UNK        -0.1935 
     47 C          30.2308    0.1263   -9.3767 C.2       7 UNK         0.5018 
     48 O          31.3990   -0.1439   -9.6566 O.2       7 UNK        -0.5186 
     49 N          29.8197    1.3726   -9.0818 N.am      8 UNK        -0.4240 
     50 CA         30.6780    2.5662   -8.9943 C.3       8 UNK         0.0235 
     51 CB         29.8273    3.7970   -8.6466 C.3       8 UNK        -0.2000 
     52 C          31.5482    2.8544  -10.2319 C.2       8 UNK         0.4941 
     53 O          32.6034    3.4701  -10.0847 O.2       8 UNK        -0.5273 
     54 N          31.1357    2.3659  -11.4104 N.am      9 UNK        -0.4262 
     55 CA         31.9308    2.3745  -12.6425 C.3       9 UNK         0.0264 
     56 CB         31.0709    1.8447  -13.8013 C.3       9 UNK        -0.1955 
     57 C          33.2476    1.5756  -12.5395 C.2       9 UNK         0.5031 
     58 O          34.2021    1.9099  -13.2431 O.2       9 UNK        -0.5390 
     59 N          33.2806    0.5554  -11.6706 N.am      10 UNK        -0.4204 
     60 CA         34.4674   -0.2317  -11.3383 C.3       10 UNK         0.0237 
     61 CB         34.1187   -1.7286  -11.4003 C.3       10 UNK        -0.1985 
     62 C          35.0008    0.1378   -9.9453 C.2       10 UNK         0.4970 
     63 O          36.2149    0.2691   -9.7858 O.2       10 UNK        -0.4914 
     64 N          34.0982    0.2840   -8.9653 N.am      11 UNK        -0.4285 
     65 CA         34.4255    0.5736   -7.5598 C.3       11 UNK         0.1007 
     66 C          34.9547    2.0107   -7.2881 C.2       11 UNK         0.5703 
     67 N          34.7069    2.9954   -8.1424 N.am      11 UNK        -0.7361 
     68 O          35.6178    2.2337   -6.2781 O.2       11 UNK        -0.4986 
     69 C69        33.2464    0.2274   -6.6127 C.3       12 UNK        -0.0947 
     70 S70        32.8287   -1.5478   -6.6499 S.3       12 UNK        -0.2240 
     71 C71        32.4679   -1.8844   -4.8986 C.3       12 UNK         0.0194 
     72 H72        27.4423   -8.7691   -0.2057 H         1 UNK         0.0906 
     73 H73        25.7811   -8.3857    0.2527 H         1 UNK         0.0906 
     74 H74        26.3711   -7.9704   -1.3579 H         1 UNK         0.0906 
     75 H75        26.8288   -5.7782   -1.5645 H         1 UNK         0.3140 
     76 H76        28.3952   -4.3584    0.4048 H         1 UNK         0.1085 
     77 H77        28.8004   -4.0115   -1.9853 H         1 UNK         0.0836 
     78 H78        28.3692   -2.5137   -1.2166 H         1 UNK         0.0836 
     79 H79        27.9705   -4.0229   -4.5748 H         1 UNK         0.0731 
     80 H80        26.8978   -2.7390   -5.0786 H         1 UNK         0.0731 
     81 H81        30.2051   -3.3858   -4.9384 H         1 UNK         0.1312 
     82 H82        31.6110    0.5478   -4.0004 H         1 UNK         0.1406 
     83 H83        27.4765   -0.4586   -3.4151 H         1 UNK         0.1631 
     84 H84        29.9886    2.3292   -3.6293 H         1 UNK         0.0717 
     85 H85        29.5537    1.6438   -2.0840 H         1 UNK         0.0717 
     86 H86        27.1303    3.5285   -5.3316 H         1 UNK         0.0934 
     87 H87        28.4386    2.4030   -5.5817 H         1 UNK         0.0934 
     88 H88        26.8605    0.4937   -5.5578 H         1 UNK         0.0739 
     89 H89        24.9228    2.4119   -4.6414 H         1 UNK         0.3093 
     90 H90        23.1635    1.5513   -3.5211 H         1 UNK         0.0818 
     91 H91        20.9278    1.5237   -4.6424 H         1 UNK         0.0819 
     92 H92        22.1303    2.2545   -5.6917 H         1 UNK         0.0819 
     93 H93        21.5970    0.6072   -5.9933 H         1 UNK         0.0819 
     94 H94        21.7387   -0.9072   -4.0560 H         1 UNK         0.3041 
     95 H95        21.6086   -2.3246   -1.9546 H         1 UNK         0.0784 
     96 H96        22.1396   -3.1185   -4.2416 H         1 UNK         0.0793 
     97 H97        23.7933   -3.4847   -3.7798 H         1 UNK         0.0793 
     98 H98        22.4560   -4.4161   -3.1075 H         1 UNK         0.0793 
     99 H99        24.2863   -3.4163   -1.3269 H         1 UNK         0.3024 
    100 H100       24.3736   -2.6142    1.9172 H         1 UNK         0.1171 
    101 H101       22.9292   -5.2777    1.4171 H         1 UNK         0.0786 
    102 H102       22.4394   -4.0344    2.5600 H         1 UNK         0.0786 
    103 H103       23.9382   -4.9111    2.8165 H         1 UNK         0.0786 
    104 H104       25.0806   -4.9300    0.1642 H         1 UNK         0.2977 
    105 H105       25.1507    0.0061   -7.3611 H         1 UNK         0.3127 
    106 H106       25.3968    1.4437   -9.8486 H         1 UNK         0.0770 
    107 H107       24.7399   -1.5063   -9.3050 H         1 UNK         0.0814 
    108 H108       24.4924   -0.6708  -10.8326 H         1 UNK         0.0814 
    109 H109       23.5699   -0.1913   -9.4174 H         1 UNK         0.0814 
    110 H110       27.4869   -0.7666   -8.1687 H         1 UNK         0.2983 
    111 H111       29.2250   -1.4676  -10.3750 H         1 UNK         0.0947 
    112 H112       30.5794   -2.5014   -8.5714 H         1 UNK         0.0806 
    113 H113       28.8916   -2.9318   -8.3643 H         1 UNK         0.0806 
    114 H114       29.6207   -1.6912   -7.3424 H         1 UNK         0.0806 
    115 H115       28.8404    1.5154   -8.8678 H         1 UNK         0.3000 
    116 H116       31.3696    2.4015   -8.1676 H         1 UNK         0.0850 
    117 H117       29.0285    3.9541   -9.3723 H         1 UNK         0.0810 
    118 H118       29.3732    3.6976   -7.6611 H         1 UNK         0.0810 
    119 H119       30.4339    4.7038   -8.6253 H         1 UNK         0.0810 
    120 H120       30.2498    1.8815  -11.4410 H         1 UNK         0.3040 
    121 H121       32.1955    3.4120  -12.8570 H         1 UNK         0.0766 
    122 H122       30.1782    2.4537  -13.9451 H         1 UNK         0.0812 
    123 H123       30.7528    0.8153  -13.6307 H         1 UNK         0.0812 
    124 H124       31.6273    1.8625  -14.7396 H         1 UNK         0.0812 
    125 H125       32.4537    0.3670  -11.1088 H         1 UNK         0.3205 
    126 H126       35.2641   -0.0414  -12.0606 H         1 UNK         0.0754 
    127 H127       33.7907   -2.0157  -12.3995 H         1 UNK         0.0769 
    128 H128       33.3242   -1.9908  -10.6999 H         1 UNK         0.0769 
    129 H129       34.9866   -2.3422  -11.1549 H         1 UNK         0.0769 
    130 H130       33.1151    0.1180   -9.1656 H         1 UNK         0.2981 
    131 H131       35.2512   -0.0887   -7.2913 H         1 UNK         0.0541 
    132 H132       34.1071    2.8670   -8.9496 H         1 UNK         0.3459 
    133 H133       35.0716    3.9125   -7.9425 H         1 UNK         0.3459 
    134 H134       33.4962    0.5045   -5.5874 H         1 UNK         0.0612 
    135 H135       32.3537    0.7954   -6.8730 H         1 UNK         0.0612 
    136 H136       33.2033   -1.3929   -4.2601 H         1 UNK         0.0624 
    137 H137       32.5901   -2.9543   -4.7236 H         1 UNK         0.0624 
@<TRIPOS>BOND
     1    1    2 1    
     2    1   72 1    
     3    1   73 1    
     4    1   74 1    
     5    2    3 2    
     6    2    4 am   BACKBONE|DICT|INTERRES
     7    4    5 1    
     8    4   75 1    
     9    5    6 1    
    10    5   35 1    
    11    5   76 1    
    12    6    7 1    
    13    6   77 1    
    14    6   78 1    
    15    7    8 1    
    16    8    9 1    
    17    8   79 1    
    18    8   80 1    
    19    9   10 ar   
    20    9   14 ar   
    21   10   11 ar   
    22   10   81 1    
    23   11   12 ar   
    24   11   71 1    
    25   12   13 ar   
    26   12   82 1    
    27   13   14 ar   
    28   13   15 1    
    29   14   83 1    
    30   15   16 1    
    31   15   84 1    
    32   15   85 1    
    33   16   17 1    
    34   17   18 1    
    35   17   86 1    
    36   17   87 1    
    37   18   19 1    
    38   18   37 1    
    39   18   88 1    
    40   19   20 am   BACKBONE|DICT|INTERRES
    41   19   89 1    
    42   20   21 2    
    43   20   22 1    
    44   22   23 1    
    45   22   24 1    
    46   22   90 1    
    47   23   91 1    
    48   23   92 1    
    49   23   93 1    
    50   24   25 am   BACKBONE|DICT|INTERRES
    51   24   94 1    
    52   25   26 2    
    53   25   27 1    
    54   27   28 1    
    55   27   29 1    
    56   27   95 1    
    57   28   96 1    
    58   28   97 1    
    59   28   98 1    
    60   29   30 am   BACKBONE|DICT|INTERRES
    61   29   99 1    
    62   30   31 2    
    63   30   32 1    
    64   32   33 1    
    65   32   34 1    
    66   32  100 1    
    67   33  101 1    
    68   33  102 1    
    69   33  103 1    
    70   34   35 am   BACKBONE|DICT|INTERRES
    71   34  104 1    
    72   35   36 2    
    73   37   38 2    
    74   37   39 am   BACKBONE|DICT|INTERRES
    75   39   40 1    
    76   39  105 1    
    77   40   41 1    
    78   40   42 1    
    79   40  106 1    
    80   41  107 1    
    81   41  108 1    
    82   41  109 1    
    83   42   43 2    
    84   42   44 am   BACKBONE|DICT|INTERRES
    85   44   45 1    
    86   44  110 1    
    87   45   46 1    
    88   45   47 1    
    89   45  111 1    
    90   46  112 1    
    91   46  113 1    
    92   46  114 1    
    93   47   48 2    
    94   47   49 am   BACKBONE|DICT|INTERRES
    95   49   50 1    
    96   49  115 1    
    97   50   51 1    
    98   50   52 1    
    99   50  116 1    
   100   51  117 1    
   101   51  118 1    
   102   51  119 1    
   103   52   53 2    
   104   52   54 am   BACKBONE|DICT|INTERRES
   105   54   55 1    
   106   54  120 1    
   107   55   56 1    
   108   55   57 1    
   109   55  121 1    
   110   56  122 1    
   111   56  123 1    
   112   56  124 1    
   113   57   58 2    
   114   57   59 am   BACKBONE|DICT|INTERRES
   115   59   60 1    
   116   59  125 1    
   117   60   61 1    
   118   60   62 1    
   119   60  126 1    
   120   61  127 1    
   121   61  128 1    
   122   61  129 1    
   123   62   63 2    
   124   62   64 am   BACKBONE|DICT|INTERRES
   125   64   65 1    
   126   64  130 1    
   127   65   66 1    
   128   65   69 1    
   129   65  131 1    
   130   66   67 am   BACKBONE|DICT|INTERRES
   131   66   68 2    
   132   67  132 1    
   133   67  133 1    
   134   69   70 1    
   135   69  134 1    
   136   69  135 1    
   137   70   71 1    
   138   71  136 1    
   139   71  137 1    
@<TRIPOS>SUBSTRUCTURE
     1 UNK         1 GROUP             0       ****    0 ROOT    
