@<TRIPOS>MOLECULE
3R137
137   139    1
SMALL
USER_CHARGES


@<TRIPOS>ATOM
      1 CA         25.1475   -4.9568   -1.2016 C.3       0 UNK        -0.2020 
      2 C          26.0673   -4.1921   -0.2632 C.2       0 UNK         0.4855 
      3 O          25.6008   -3.6404    0.7337 O.2       0 UNK        -0.5197 
      4 N          27.3725   -4.1674   -0.5656 N.am      1 UNK        -0.4892 
      5 CA         28.4103   -3.5270    0.2583 C.3       1 UNK         0.0835 
      6 C6         29.8404   -3.9600   -0.1517 C.3       12 UNK        -0.0855 
      7 S7         30.0355   -5.7758   -0.2233 S.3       12 UNK        -0.2931 
      8 C8         31.2907   -5.9811   -1.5313 C.3       12 UNK         0.0378 
      9 C9         30.8638   -5.3833   -2.8668 C.ar      12 UNK        -0.0802 
     10 C10        31.6063   -4.3444   -3.4378 C.ar      12 UNK        -0.0944 
     11 C11        31.2293   -3.7911   -4.6648 C.ar      12 UNK        -0.0787 
     12 C12        30.0941   -4.2771   -5.3182 C.ar      12 UNK        -0.0862 
     13 C13        29.3360   -5.3067   -4.7517 C.ar      12 UNK        -0.0733 
     14 C14        29.7335   -5.8667   -3.5336 C.ar      12 UNK        -0.0832 
     15 C15        28.0839   -5.8083   -5.4555 C.3       12 UNK         0.0240 
     16 S16        26.5556   -5.3189   -4.5887 S.3       12 UNK        -0.2522 
     17 C17        26.6665   -3.4968   -4.5540 C.3       12 UNK        -0.0967 
     18 CA         25.8635   -2.8059   -5.6825 C.3       5 UNK         0.0660 
     19 N          25.5644   -1.4112   -5.3485 N.am      5 UNK        -0.4015 
     20 C          24.6710   -0.6509   -6.0012 C.2       4 UNK         0.4946 
     21 O          23.9243   -1.0844   -6.8790 O.2       4 UNK        -0.5353 
     22 CA         24.5808    0.8437   -5.6346 C.3       4 UNK         0.0277 
     23 CB         23.3052    1.1192   -4.8214 C.3       4 UNK        -0.1981 
     24 N          25.7339    1.3680   -4.8987 N.am      4 UNK        -0.4209 
     25 C          26.9880    1.4516   -5.3631 C.2       3 UNK         0.4942 
     26 O          27.3364    1.0891   -6.4869 O.2       3 UNK        -0.5208 
     27 CA         28.0475    1.9736   -4.3794 C.3       3 UNK         0.0250 
     28 CB         28.0659    3.5119   -4.3997 C.3       3 UNK        -0.1990 
     29 N          27.8858    1.5113   -2.9938 N.am      3 UNK        -0.4232 
     30 C          27.7183    0.2407   -2.5990 C.2       2 UNK         0.4993 
     31 O          27.5897   -0.7137   -3.3720 O.2       2 UNK        -0.5286 
     32 CA         27.6287    0.0037   -1.0882 C.3       2 UNK         0.0209 
     33 CB         26.2688    0.4666   -0.5338 C.3       2 UNK        -0.1931 
     34 N          27.7933   -1.4238   -0.8428 N.am      2 UNK        -0.4546 
     35 C          28.3044   -1.9868    0.2567 C.2       1 UNK         0.5154 
     36 O          28.6871   -1.3474    1.2380 O.2       1 UNK        -0.5181 
     37 C          26.5829   -2.9021   -7.0441 C.2       5 UNK         0.5014 
     38 O          26.2299   -3.7565   -7.8588 O.2       5 UNK        -0.5248 
     39 N          27.5598   -2.0117   -7.2748 N.am      6 UNK        -0.4434 
     40 CA         28.2529   -1.8797   -8.5571 C.3       6 UNK         0.0363 
     41 CB         29.6460   -1.2753   -8.3349 C.3       6 UNK        -0.1936 
     42 C          27.4510   -1.0239   -9.5485 C.2       6 UNK         0.5081 
     43 O          27.4120   -1.3507  -10.7350 O.2       6 UNK        -0.5248 
     44 N          26.8449    0.0613   -9.0440 N.am      7 UNK        -0.4718 
     45 CA         26.0060    1.0594   -9.7183 C.3       7 UNK         0.0273 
     46 CB         24.7324    0.4247  -10.3101 C.3       7 UNK        -0.1935 
     47 C          26.7526    1.9107  -10.7583 C.2       7 UNK         0.5018 
     48 O          26.7659    3.1352  -10.6344 O.2       7 UNK        -0.5186 
     49 N          27.3599    1.2564  -11.7551 N.am      8 UNK        -0.4240 
     50 CA         28.1143    1.8888  -12.8375 C.3       8 UNK         0.0235 
     51 CB         28.2869    0.8938  -13.9971 C.3       8 UNK        -0.2000 
     52 C          29.4740    2.4238  -12.3649 C.2       8 UNK         0.4941 
     53 O          29.8187    3.5625  -12.6828 O.2       8 UNK        -0.5273 
     54 N          30.2177    1.5976  -11.6138 N.am      9 UNK        -0.4262 
     55 CA         31.5332    1.9539  -11.0705 C.3       9 UNK         0.0264 
     56 CB         32.3465    0.6784  -10.7953 C.3       9 UNK        -0.1955 
     57 C          31.4470    2.8193   -9.8017 C.2       9 UNK         0.5031 
     58 O          32.3881    3.5666   -9.5334 O.2       9 UNK        -0.5390 
     59 N          30.3360    2.6950   -9.0551 N.am      10 UNK        -0.4204 
     60 CA         30.0138    3.3919   -7.8020 C.3       10 UNK         0.0237 
     61 CB         29.6772    4.8708   -8.0849 C.3       10 UNK        -0.1985 
     62 C          31.1094    3.2179   -6.7298 C.2       10 UNK         0.4970 
     63 O          31.7123    4.1986   -6.2917 O.2       10 UNK        -0.4914 
     64 N          31.3628    1.9570   -6.3577 N.am      11 UNK        -0.4285 
     65 CA         32.4661    1.5190   -5.4848 C.3       11 UNK         0.1007 
     66 C          32.4380    1.9881   -3.9965 C.2       11 UNK         0.5703 
     67 N          31.4373    2.7304   -3.5427 N.am      11 UNK        -0.7361 
     68 O          33.3576    1.6840   -3.2402 O.2       11 UNK        -0.4986 
     69 C69        32.7054   -0.0077   -5.6231 C.3       12 UNK        -0.0947 
     70 S70        31.3384   -1.0426   -4.9960 S.3       12 UNK        -0.2240 
     71 C71        32.0613   -2.6844   -5.2928 C.3       12 UNK         0.0194 
     72 H72        24.6673   -4.2743   -1.9020 H         1 UNK         0.0906 
     73 H73        25.6924   -5.7107   -1.7686 H         1 UNK         0.0906 
     74 H74        24.3688   -5.4673   -0.6354 H         1 UNK         0.0906 
     75 H75        27.7097   -4.6622   -1.3796 H         1 UNK         0.3140 
     76 H76        28.2487   -3.8498    1.2895 H         1 UNK         0.1085 
     77 H77        30.0967   -3.5240   -1.1183 H         1 UNK         0.0836 
     78 H78        30.5737   -3.5708    0.5576 H         1 UNK         0.0836 
     79 H79        32.2277   -5.5389   -1.1888 H         1 UNK         0.0731 
     80 H80        31.4875   -7.0455   -1.6666 H         1 UNK         0.0731 
     81 H81        32.4828   -3.9666   -2.9291 H         1 UNK         0.1312 
     82 H82        29.7957   -3.8450   -6.2633 H         1 UNK         0.1406 
     83 H83        29.1518   -6.6662   -3.0945 H         1 UNK         0.1631 
     84 H84        28.0465   -5.4501   -6.4850 H         1 UNK         0.0717 
     85 H85        28.1186   -6.8969   -5.5165 H         1 UNK         0.0717 
     86 H86        26.2607   -3.1925   -3.5884 H         1 UNK         0.0934 
     87 H87        27.7040   -3.1622   -4.5391 H         1 UNK         0.0934 
     88 H88        24.9052   -3.3213   -5.7799 H         1 UNK         0.0739 
     89 H89        26.1555   -0.9884   -4.6375 H         1 UNK         0.3093 
     90 H90        24.5136    1.3961   -6.5742 H         1 UNK         0.0818 
     91 H91        23.1729    2.1856   -4.6372 H         1 UNK         0.0819 
     92 H92        22.4185    0.7741   -5.3553 H         1 UNK         0.0819 
     93 H93        23.3231    0.6096   -3.8571 H         1 UNK         0.0819 
     94 H94        25.5615    1.6773   -3.9533 H         1 UNK         0.3041 
     95 H95        29.0127    1.6019   -4.7260 H         1 UNK         0.0784 
     96 H96        28.1956    3.8955   -5.4117 H         1 UNK         0.0793 
     97 H97        27.1320    3.9283   -4.0196 H         1 UNK         0.0793 
     98 H98        28.8750    3.9174   -3.7934 H         1 UNK         0.0793 
     99 H99        27.9555    2.2238   -2.2812 H         1 UNK         0.3024 
    100 H100       28.4391    0.5533   -0.6035 H         1 UNK         0.1171 
    101 H101       26.1975    0.2865    0.5391 H         1 UNK         0.0786 
    102 H102       26.1179    1.5353   -0.6904 H         1 UNK         0.0786 
    103 H103       25.4402   -0.0565   -1.0135 H         1 UNK         0.0786 
    104 H104       27.5645   -2.0092   -1.6362 H         1 UNK         0.2977 
    105 H105       27.7621   -1.3157   -6.5696 H         1 UNK         0.3127 
    106 H106       28.3834   -2.8704   -8.9985 H         1 UNK         0.0770 
    107 H107       29.5951   -0.2846   -7.8831 H         1 UNK         0.0814 
    108 H108       30.1749   -1.1854   -9.2828 H         1 UNK         0.0814 
    109 H109       30.2530   -1.9098   -7.6914 H         1 UNK         0.0814 
    110 H110       27.0142    0.2734   -8.0615 H         1 UNK         0.2983 
    111 H111       25.6873    1.7455   -8.9315 H         1 UNK         0.0947 
    112 H112       24.0800    1.1875  -10.7368 H         1 UNK         0.0806 
    113 H113       24.1609   -0.0978   -9.5428 H         1 UNK         0.0806 
    114 H114       24.9565   -0.2898  -11.1024 H         1 UNK         0.0806 
    115 H115       27.3287    0.2394  -11.7260 H         1 UNK         0.3000 
    116 H116       27.5340    2.7381  -13.2056 H         1 UNK         0.0850 
    117 H117       28.8461    1.3446  -14.8183 H         1 UNK         0.0810 
    118 H118       27.3215    0.5828  -14.3970 H         1 UNK         0.0810 
    119 H119       28.8249   -0.0034  -13.6887 H         1 UNK         0.0810 
    120 H120       29.8728    0.6668  -11.4294 H         1 UNK         0.3040 
    121 H121       32.0720    2.5324  -11.8247 H         1 UNK         0.0766 
    122 H122       32.4144    0.0476  -11.6818 H         1 UNK         0.0812 
    123 H123       31.9191    0.0857   -9.9882 H         1 UNK         0.0812 
    124 H124       33.3666    0.9292  -10.5005 H         1 UNK         0.0812 
    125 H125       29.6272    2.0628   -9.3952 H         1 UNK         0.3205 
    126 H126       29.1122    2.9198   -7.4112 H         1 UNK         0.0754 
    127 H127       29.3740    5.3864   -7.1729 H         1 UNK         0.0769 
    128 H128       28.8551    4.9584   -8.7958 H         1 UNK         0.0769 
    129 H129       30.5321    5.4099   -8.4950 H         1 UNK         0.0769 
    130 H130       30.8050    1.2132   -6.7467 H         1 UNK         0.2981 
    131 H131       33.3579    1.9993   -5.8919 H         1 UNK         0.0541 
    132 H132       30.7244    3.0539   -4.1725 H         1 UNK         0.3459 
    133 H133       31.4479    3.0321   -2.5817 H         1 UNK         0.3459 
    134 H134       33.6231   -0.2929   -5.1054 H         1 UNK         0.0612 
    135 H135       32.8701   -0.2599   -6.6721 H         1 UNK         0.0612 
    136 H136       33.0762   -2.7085   -4.8927 H         1 UNK         0.0624 
    137 H137       32.1515   -2.8514   -6.3670 H         1 UNK         0.0624 
@<TRIPOS>BOND
     1    1    2 1    
     2    1   72 1    
     3    1   73 1    
     4    1   74 1    
     5    2    3 2    
     6    2    4 am   BACKBONE|DICT|INTERRES
     7    4    5 1    
     8    4   75 1    
     9    5    6 1    
    10    5   35 1    
    11    5   76 1    
    12    6    7 1    
    13    6   77 1    
    14    6   78 1    
    15    7    8 1    
    16    8    9 1    
    17    8   79 1    
    18    8   80 1    
    19    9   10 ar   
    20    9   14 ar   
    21   10   11 ar   
    22   10   81 1    
    23   11   12 ar   
    24   11   71 1    
    25   12   13 ar   
    26   12   82 1    
    27   13   14 ar   
    28   13   15 1    
    29   14   83 1    
    30   15   16 1    
    31   15   84 1    
    32   15   85 1    
    33   16   17 1    
    34   17   18 1    
    35   17   86 1    
    36   17   87 1    
    37   18   19 1    
    38   18   37 1    
    39   18   88 1    
    40   19   20 am   BACKBONE|DICT|INTERRES
    41   19   89 1    
    42   20   21 2    
    43   20   22 1    
    44   22   23 1    
    45   22   24 1    
    46   22   90 1    
    47   23   91 1    
    48   23   92 1    
    49   23   93 1    
    50   24   25 am   BACKBONE|DICT|INTERRES
    51   24   94 1    
    52   25   26 2    
    53   25   27 1    
    54   27   28 1    
    55   27   29 1    
    56   27   95 1    
    57   28   96 1    
    58   28   97 1    
    59   28   98 1    
    60   29   30 am   BACKBONE|DICT|INTERRES
    61   29   99 1    
    62   30   31 2    
    63   30   32 1    
    64   32   33 1    
    65   32   34 1    
    66   32  100 1    
    67   33  101 1    
    68   33  102 1    
    69   33  103 1    
    70   34   35 am   BACKBONE|DICT|INTERRES
    71   34  104 1    
    72   35   36 2    
    73   37   38 2    
    74   37   39 am   BACKBONE|DICT|INTERRES
    75   39   40 1    
    76   39  105 1    
    77   40   41 1    
    78   40   42 1    
    79   40  106 1    
    80   41  107 1    
    81   41  108 1    
    82   41  109 1    
    83   42   43 2    
    84   42   44 am   BACKBONE|DICT|INTERRES
    85   44   45 1    
    86   44  110 1    
    87   45   46 1    
    88   45   47 1    
    89   45  111 1    
    90   46  112 1    
    91   46  113 1    
    92   46  114 1    
    93   47   48 2    
    94   47   49 am   BACKBONE|DICT|INTERRES
    95   49   50 1    
    96   49  115 1    
    97   50   51 1    
    98   50   52 1    
    99   50  116 1    
   100   51  117 1    
   101   51  118 1    
   102   51  119 1    
   103   52   53 2    
   104   52   54 am   BACKBONE|DICT|INTERRES
   105   54   55 1    
   106   54  120 1    
   107   55   56 1    
   108   55   57 1    
   109   55  121 1    
   110   56  122 1    
   111   56  123 1    
   112   56  124 1    
   113   57   58 2    
   114   57   59 am   BACKBONE|DICT|INTERRES
   115   59   60 1    
   116   59  125 1    
   117   60   61 1    
   118   60   62 1    
   119   60  126 1    
   120   61  127 1    
   121   61  128 1    
   122   61  129 1    
   123   62   63 2    
   124   62   64 am   BACKBONE|DICT|INTERRES
   125   64   65 1    
   126   64  130 1    
   127   65   66 1    
   128   65   69 1    
   129   65  131 1    
   130   66   67 am   BACKBONE|DICT|INTERRES
   131   66   68 2    
   132   67  132 1    
   133   67  133 1    
   134   69   70 1    
   135   69  134 1    
   136   69  135 1    
   137   70   71 1    
   138   71  136 1    
   139   71  137 1    
@<TRIPOS>SUBSTRUCTURE
     1 UNK         1 GROUP             0       ****    0 ROOT    
