@<TRIPOS>MOLECULE
3R137
137   139    1
SMALL
USER_CHARGES


@<TRIPOS>ATOM
      1 CA         23.6347   -5.2661   -3.1164 C.3       0 UNK        -0.2020 
      2 C          24.3659   -4.3881   -2.1127 C.2       0 UNK         0.4855 
      3 O          23.7519   -3.5174   -1.4951 O.2       0 UNK        -0.5197 
      4 N          25.6782   -4.5985   -1.9552 N.am      1 UNK        -0.4892 
      5 CA         26.5773   -3.8271   -1.0901 C.3       1 UNK         0.0835 
      6 C6         27.9950   -4.4537   -0.9954 C.3       12 UNK        -0.0855 
      7 S7         28.6426   -5.1413   -2.5637 S.3       12 UNK        -0.2931 
      8 C8         30.3966   -4.6679   -2.4947 C.3       12 UNK         0.0378 
      9 C9         30.6812   -3.4221   -3.3190 C.ar      12 UNK        -0.0802 
     10 C10        30.8759   -3.5389   -4.6974 C.ar      12 UNK        -0.0944 
     11 C11        31.2269   -2.4253   -5.4638 C.ar      12 UNK        -0.0787 
     12 C12        31.3685   -1.1816   -4.8416 C.ar      12 UNK        -0.0862 
     13 C13        31.1424   -1.0413   -3.4680 C.ar      12 UNK        -0.0733 
     14 C14        30.7990   -2.1682   -2.7111 C.ar      12 UNK        -0.0832 
     15 C15        31.3024    0.3163   -2.7883 C.3       12 UNK         0.0240 
     16 S16        30.3948    1.6650   -3.6205 S.3       12 UNK        -0.2522 
     17 C17        28.6842    1.0368   -3.5931 C.3       12 UNK        -0.0967 
     18 CA         28.1693    0.7143   -5.0211 C.3       5 UNK         0.0660 
     19 N          27.3224   -0.4800   -5.0360 N.am      5 UNK        -0.4015 
     20 C          26.8204   -1.0608   -6.1352 C.2       4 UNK         0.4946 
     21 O          27.0671   -0.6975   -7.2850 O.2       4 UNK        -0.5353 
     22 CA         25.8117   -2.1964   -5.9046 C.3       4 UNK         0.0277 
     23 CB         26.5268   -3.5262   -5.6132 C.3       4 UNK        -0.1981 
     24 N          24.8840   -1.8661   -4.8188 N.am      4 UNK        -0.4209 
     25 C          23.9241   -0.9327   -4.9152 C.2       3 UNK         0.4942 
     26 O          23.6668   -0.3258   -5.9536 O.2       3 UNK        -0.5208 
     27 CA         23.1493   -0.5784   -3.6349 C.3       3 UNK         0.0250 
     28 CB         21.9069   -1.4692   -3.4812 C.3       3 UNK        -0.1990 
     29 N          23.9838   -0.6579   -2.4325 N.am      3 UNK        -0.4232 
     30 C          24.9610    0.2190   -2.1510 C.2       2 UNK         0.4993 
     31 O          25.2213    1.1931   -2.8546 O.2       2 UNK        -0.5286 
     32 CA         25.8366   -0.0533   -0.9154 C.3       2 UNK         0.0209 
     33 CB         25.2406    0.6265    0.3270 C.3       2 UNK        -0.1931 
     34 N          26.0393   -1.4787   -0.6456 N.am      2 UNK        -0.4546 
     35 C          26.6047   -2.3416   -1.5008 C.2       1 UNK         0.5154 
     36 O          27.0626   -2.0082   -2.5954 O.2       1 UNK        -0.5181 
     37 C          27.4716    1.9314   -5.6676 C.2       5 UNK         0.5014 
     38 O          28.0753    2.6104   -6.4968 O.2       5 UNK        -0.5248 
     39 N          26.2013    2.1684   -5.3077 N.am      6 UNK        -0.4434 
     40 CA         25.3550    3.2112   -5.8927 C.3       6 UNK         0.0363 
     41 CB         24.0427    3.3188   -5.1002 C.3       6 UNK        -0.1936 
     42 C          25.0646    2.9921   -7.3879 C.2       6 UNK         0.5081 
     43 O          25.0048    3.9701   -8.1340 O.2       6 UNK        -0.5248 
     44 N          24.8904    1.7280   -7.8004 N.am      7 UNK        -0.4718 
     45 CA         24.6800    1.3381   -9.1948 C.3       7 UNK         0.0273 
     46 CB         24.1787   -0.1133   -9.2711 C.3       7 UNK        -0.1935 
     47 C          25.9346    1.5378  -10.0604 C.2       7 UNK         0.5018 
     48 O          25.8310    2.1543  -11.1224 O.2       7 UNK        -0.5186 
     49 N          27.0879    1.0297   -9.6037 N.am      8 UNK        -0.4240 
     50 CA         28.3614    1.1295  -10.3139 C.3       8 UNK         0.0235 
     51 CB         28.3902    0.1575  -11.5136 C.3       8 UNK        -0.2000 
     52 C          29.5270    0.8638   -9.3551 C.2       8 UNK         0.4941 
     53 O          29.9147   -0.2916   -9.1688 O.2       8 UNK        -0.5273 
     54 N          30.1275    1.9318   -8.8138 N.am      9 UNK        -0.4262 
     55 CA         31.3393    1.8936   -7.9827 C.3       9 UNK         0.0264 
     56 CB         31.4325    3.1890   -7.1533 C.3       9 UNK        -0.1955 
     57 C          32.6225    1.6352   -8.8057 C.2       9 UNK         0.5031 
     58 O          33.6142    2.3493   -8.6476 O.2       9 UNK        -0.5390 
     59 N          32.5803    0.6263   -9.6840 N.am      10 UNK        -0.4204 
     60 CA         33.6827    0.2135  -10.5577 C.3       10 UNK         0.0237 
     61 CB         33.0971   -0.5269  -11.7718 C.3       10 UNK        -0.1985 
     62 C          34.7222   -0.6668   -9.8406 C.2       10 UNK         0.4970 
     63 O          35.8307   -0.8279  -10.3528 O.2       10 UNK        -0.4914 
     64 N          34.3363   -1.2375   -8.6940 N.am      11 UNK        -0.4285 
     65 CA         35.1454   -2.1172   -7.8433 C.3       11 UNK         0.1007 
     66 C          36.3991   -1.4101   -7.2596 C.2       11 UNK         0.5703 
     67 N          37.5153   -2.1175   -7.1475 N.am      11 UNK        -0.7361 
     68 O          36.3556   -0.2449   -6.8685 O.2       11 UNK        -0.4986 
     69 C69        34.2839   -2.7248   -6.7072 C.3       12 UNK        -0.0947 
     70 S70        32.8589   -3.6778   -7.3381 S.3       12 UNK        -0.2240 
     71 C71        31.4579   -2.5722   -6.9610 C.3       12 UNK         0.0194 
     72 H72        22.7441   -5.6969   -2.6594 H         1 UNK         0.0906 
     73 H73        23.3250   -4.6758   -3.9783 H         1 UNK         0.0906 
     74 H74        24.2608   -6.0841   -3.4725 H         1 UNK         0.0906 
     75 H75        26.1460   -5.3010   -2.5124 H         1 UNK         0.3140 
     76 H76        26.1497   -3.8747   -0.0858 H         1 UNK         0.1085 
     77 H77        27.9673   -5.2794   -0.2825 H         1 UNK         0.0836 
     78 H78        28.7047   -3.7381   -0.5752 H         1 UNK         0.0836 
     79 H79        30.9909   -5.4966   -2.8837 H         1 UNK         0.0731 
     80 H80        30.7199   -4.5347   -1.4612 H         1 UNK         0.0731 
     81 H81        30.7789   -4.5056   -5.1727 H         1 UNK         0.1312 
     82 H82        31.6510   -0.3166   -5.4238 H         1 UNK         0.1406 
     83 H83        30.6422   -2.0753   -1.6452 H         1 UNK         0.1631 
     84 H84        32.3624    0.5719   -2.7632 H         1 UNK         0.0717 
     85 H85        30.9727    0.2696   -1.7492 H         1 UNK         0.0717 
     86 H86        28.6607    0.1441   -2.9667 H         1 UNK         0.0934 
     87 H87        28.0464    1.7587   -3.0787 H         1 UNK         0.0934 
     88 H88        29.0219    0.4653   -5.6572 H         1 UNK         0.0739 
     89 H89        27.1195   -0.9066   -4.1354 H         1 UNK         0.3093 
     90 H90        25.2315   -2.3207   -6.8214 H         1 UNK         0.0818 
     91 H91        27.1714   -3.8074   -6.4470 H         1 UNK         0.0819 
     92 H92        27.1592   -3.4689   -4.7273 H         1 UNK         0.0819 
     93 H93        25.8147   -4.3381   -5.4660 H         1 UNK         0.0819 
     94 H94        25.0814   -2.2677   -3.9134 H         1 UNK         0.3041 
     95 H95        22.8053    0.4533   -3.7349 H         1 UNK         0.0784 
     96 H96        21.2420   -1.3567   -4.3387 H         1 UNK         0.0793 
     97 H97        22.1661   -2.5249   -3.4104 H         1 UNK         0.0793 
     98 H98        21.3355   -1.2037   -2.5916 H         1 UNK         0.0793 
     99 H99        23.8540   -1.4684   -1.8345 H         1 UNK         0.3024 
    100 H100       26.8163    0.3881   -1.1103 H         1 UNK         0.1171 
    101 H101       25.8978    0.5229    1.1906 H         1 UNK         0.0786 
    102 H102       25.0995    1.6949    0.1564 H         1 UNK         0.0786 
    103 H103       24.2686    0.2075    0.5908 H         1 UNK         0.0786 
    104 H104       25.6509   -1.8324    0.2174 H         1 UNK         0.2977 
    105 H105       25.7950    1.6275   -4.5460 H         1 UNK         0.3127 
    106 H106       25.8883    4.1592   -5.7967 H         1 UNK         0.0770 
    107 H107       23.4687    2.3930   -5.1458 H         1 UNK         0.0814 
    108 H108       23.4111    4.1144   -5.4975 H         1 UNK         0.0814 
    109 H109       24.2295    3.5465   -4.0506 H         1 UNK         0.0814 
    110 H110       24.8934    0.9832   -7.1124 H         1 UNK         0.2983 
    111 H111       23.8959    1.9799   -9.6031 H         1 UNK         0.0947 
    112 H112       24.9008   -0.8165   -8.8568 H         1 UNK         0.0806 
    113 H113       23.9942   -0.4076  -10.3051 H         1 UNK         0.0806 
    114 H114       23.2424   -0.2375   -8.7269 H         1 UNK         0.0806 
    115 H115       27.1008    0.5166   -8.7214 H         1 UNK         0.3000 
    116 H116       28.4704    2.1460  -10.6985 H         1 UNK         0.0850 
    117 H117       29.3642    0.1710  -12.0048 H         1 UNK         0.0810 
    118 H118       27.6483    0.4242  -12.2661 H         1 UNK         0.0810 
    119 H119       28.1954   -0.8697  -11.2024 H         1 UNK         0.0810 
    120 H120       29.7467    2.8483   -9.0025 H         1 UNK         0.3040 
    121 H121       31.2404    1.0643   -7.2806 H         1 UNK         0.0766 
    122 H122       30.5570    3.3239   -6.5200 H         1 UNK         0.0812 
    123 H123       31.5275    4.0700   -7.7889 H         1 UNK         0.0812 
    124 H124       32.2981    3.1683   -6.4897 H         1 UNK         0.0812 
    125 H125       31.7158    0.0915   -9.7329 H         1 UNK         0.3205 
    126 H126       34.2003    1.1056  -10.9169 H         1 UNK         0.0754 
    127 H127       33.8847   -0.8278  -12.4642 H         1 UNK         0.0769 
    128 H128       32.4050    0.1070  -12.3268 H         1 UNK         0.0769 
    129 H129       32.5609   -1.4294  -11.4748 H         1 UNK         0.0769 
    130 H130       33.4097   -1.0375   -8.3559 H         1 UNK         0.2981 
    131 H131       35.4911   -2.9349   -8.4791 H         1 UNK         0.0541 
    132 H132       37.5580   -3.0777   -7.4523 H         1 UNK         0.3459 
    133 H133       38.3348   -1.6798   -6.7562 H         1 UNK         0.3459 
    134 H134       34.8842   -3.4060   -6.1013 H         1 UNK         0.0612 
    135 H135       33.9385   -1.9440   -6.0277 H         1 UNK         0.0612 
    136 H136       31.6272   -1.6015   -7.4273 H         1 UNK         0.0624 
    137 H137       30.5546   -2.9768   -7.4199 H         1 UNK         0.0624 
@<TRIPOS>BOND
     1    1    2 1    
     2    1   72 1    
     3    1   73 1    
     4    1   74 1    
     5    2    3 2    
     6    2    4 am   BACKBONE|DICT|INTERRES
     7    4    5 1    
     8    4   75 1    
     9    5    6 1    
    10    5   35 1    
    11    5   76 1    
    12    6    7 1    
    13    6   77 1    
    14    6   78 1    
    15    7    8 1    
    16    8    9 1    
    17    8   79 1    
    18    8   80 1    
    19    9   10 ar   
    20    9   14 ar   
    21   10   11 ar   
    22   10   81 1    
    23   11   12 ar   
    24   11   71 1    
    25   12   13 ar   
    26   12   82 1    
    27   13   14 ar   
    28   13   15 1    
    29   14   83 1    
    30   15   16 1    
    31   15   84 1    
    32   15   85 1    
    33   16   17 1    
    34   17   18 1    
    35   17   86 1    
    36   17   87 1    
    37   18   19 1    
    38   18   37 1    
    39   18   88 1    
    40   19   20 am   BACKBONE|DICT|INTERRES
    41   19   89 1    
    42   20   21 2    
    43   20   22 1    
    44   22   23 1    
    45   22   24 1    
    46   22   90 1    
    47   23   91 1    
    48   23   92 1    
    49   23   93 1    
    50   24   25 am   BACKBONE|DICT|INTERRES
    51   24   94 1    
    52   25   26 2    
    53   25   27 1    
    54   27   28 1    
    55   27   29 1    
    56   27   95 1    
    57   28   96 1    
    58   28   97 1    
    59   28   98 1    
    60   29   30 am   BACKBONE|DICT|INTERRES
    61   29   99 1    
    62   30   31 2    
    63   30   32 1    
    64   32   33 1    
    65   32   34 1    
    66   32  100 1    
    67   33  101 1    
    68   33  102 1    
    69   33  103 1    
    70   34   35 am   BACKBONE|DICT|INTERRES
    71   34  104 1    
    72   35   36 2    
    73   37   38 2    
    74   37   39 am   BACKBONE|DICT|INTERRES
    75   39   40 1    
    76   39  105 1    
    77   40   41 1    
    78   40   42 1    
    79   40  106 1    
    80   41  107 1    
    81   41  108 1    
    82   41  109 1    
    83   42   43 2    
    84   42   44 am   BACKBONE|DICT|INTERRES
    85   44   45 1    
    86   44  110 1    
    87   45   46 1    
    88   45   47 1    
    89   45  111 1    
    90   46  112 1    
    91   46  113 1    
    92   46  114 1    
    93   47   48 2    
    94   47   49 am   BACKBONE|DICT|INTERRES
    95   49   50 1    
    96   49  115 1    
    97   50   51 1    
    98   50   52 1    
    99   50  116 1    
   100   51  117 1    
   101   51  118 1    
   102   51  119 1    
   103   52   53 2    
   104   52   54 am   BACKBONE|DICT|INTERRES
   105   54   55 1    
   106   54  120 1    
   107   55   56 1    
   108   55   57 1    
   109   55  121 1    
   110   56  122 1    
   111   56  123 1    
   112   56  124 1    
   113   57   58 2    
   114   57   59 am   BACKBONE|DICT|INTERRES
   115   59   60 1    
   116   59  125 1    
   117   60   61 1    
   118   60   62 1    
   119   60  126 1    
   120   61  127 1    
   121   61  128 1    
   122   61  129 1    
   123   62   63 2    
   124   62   64 am   BACKBONE|DICT|INTERRES
   125   64   65 1    
   126   64  130 1    
   127   65   66 1    
   128   65   69 1    
   129   65  131 1    
   130   66   67 am   BACKBONE|DICT|INTERRES
   131   66   68 2    
   132   67  132 1    
   133   67  133 1    
   134   69   70 1    
   135   69  134 1    
   136   69  135 1    
   137   70   71 1    
   138   71  136 1    
   139   71  137 1    
@<TRIPOS>SUBSTRUCTURE
     1 UNK         1 GROUP             0       ****    0 ROOT    
