@<TRIPOS>MOLECULE
3R137
137   139    1
SMALL
USER_CHARGES


@<TRIPOS>ATOM
      1 CA         24.7229   -1.8668    1.2159 C.3       0 UNK        -0.2020 
      2 C          26.0159   -1.4267    0.5469 C.2       0 UNK         0.4855 
      3 O          26.1980   -0.2369    0.2873 O.2       0 UNK        -0.5197 
      4 N          26.9174   -2.3744    0.2574 N.am      1 UNK        -0.4892 
      5 CA         28.1596   -2.1325   -0.4838 C.3       1 UNK         0.0835 
      6 C6         29.1082   -3.3522   -0.4071 C.3       12 UNK        -0.0855 
      7 S7         30.8351   -2.9215   -0.8157 S.3       12 UNK        -0.2931 
      8 C8         31.2228   -4.1034   -2.1467 C.3       12 UNK         0.0378 
      9 C9         30.6829   -3.6588   -3.4995 C.ar      12 UNK        -0.0802 
     10 C10        31.4241   -2.7808   -4.2935 C.ar      12 UNK        -0.0944 
     11 C11        30.9687   -2.4150   -5.5631 C.ar      12 UNK        -0.0787 
     12 C12        29.7525   -2.9220   -6.0323 C.ar      12 UNK        -0.0862 
     13 C13        28.9793   -3.7774   -5.2351 C.ar      12 UNK        -0.0733 
     14 C14        29.4627   -4.1471   -3.9750 C.ar      12 UNK        -0.0832 
     15 C15        27.6107   -4.3140   -5.6599 C.3       12 UNK         0.0240 
     16 S16        27.1786   -4.1577   -7.4296 S.3       12 UNK        -0.2522 
     17 C17        26.5657   -2.4426   -7.5739 C.3       12 UNK        -0.0967 
     18 CA         25.0414   -2.3484   -7.2904 C.3       5 UNK         0.0660 
     19 N          24.7767   -2.3401   -5.8502 N.am      5 UNK        -0.4015 
     20 C          23.7347   -2.9212   -5.2400 C.2       4 UNK         0.4946 
     21 O          22.9065   -3.6263   -5.8166 O.2       4 UNK        -0.5353 
     22 CA         23.5655   -2.6397   -3.7342 C.3       4 UNK         0.0277 
     23 CB         24.0600   -3.8320   -2.8990 C.3       4 UNK        -0.1981 
     24 N          24.2488   -1.4124   -3.3051 N.am      4 UNK        -0.4209 
     25 C          23.8332   -0.1759   -3.6288 C.2       3 UNK         0.4942 
     26 O          22.8056    0.0410   -4.2697 O.2       3 UNK        -0.5208 
     27 CA         24.7263    1.0176   -3.2428 C.3       3 UNK         0.0250 
     28 CB         24.2408    1.6509   -1.9300 C.3       3 UNK        -0.1990 
     29 N          26.1458    0.6732   -3.1335 N.am      3 UNK        -0.4232 
     30 C          26.9082    0.2614   -4.1583 C.2       2 UNK         0.4993 
     31 O          26.5042    0.1861   -5.3188 O.2       2 UNK        -0.5286 
     32 CA         28.3330   -0.2214   -3.8325 C.3       2 UNK         0.0209 
     33 CB         29.3706    0.8718   -4.1201 C.3       2 UNK        -0.1931 
     34 N          28.5093   -0.7162   -2.4634 N.am      2 UNK        -0.4546 
     35 C          27.8354   -1.7491   -1.9404 C.2       1 UNK         0.5154 
     36 O          26.9663   -2.3749   -2.5525 O.2       1 UNK        -0.5181 
     37 C          24.3828   -1.1342   -7.9902 C.2       5 UNK         0.5014 
     38 O          24.5075   -1.0165   -9.2105 O.2       5 UNK        -0.5248 
     39 N          23.6801   -0.2721   -7.2340 N.am      6 UNK        -0.4434 
     40 CA         22.8890    0.8971   -7.6388 C.3       6 UNK         0.0363 
     41 CB         21.7073    0.4925   -8.5432 C.3       6 UNK        -0.1936 
     42 C          23.7090    2.0411   -8.2561 C.2       6 UNK         0.5081 
     43 O          23.7369    3.1375   -7.6970 O.2       6 UNK        -0.5248 
     44 N          24.3454    1.7751   -9.4011 N.am      7 UNK        -0.4718 
     45 CA         25.1505    2.7366  -10.1572 C.3       7 UNK         0.0273 
     46 CB         25.2583    2.2572  -11.6140 C.3       7 UNK        -0.1935 
     47 C          26.5510    2.9575   -9.5605 C.2       7 UNK         0.5018 
     48 O          27.1490    4.0006   -9.8299 O.2       7 UNK        -0.5186 
     49 N          27.0358    1.9772   -8.7802 N.am      8 UNK        -0.4240 
     50 CA         28.3773    1.8668   -8.1897 C.3       8 UNK         0.0235 
     51 CB         28.6635    3.0546   -7.2421 C.3       8 UNK        -0.2000 
     52 C          29.4891    1.6794   -9.2449 C.2       8 UNK         0.4941 
     53 O          29.2212    1.6571  -10.4488 O.2       8 UNK        -0.5273 
     54 N          30.7270    1.5197   -8.7676 N.am      9 UNK        -0.4262 
     55 CA         31.9462    1.3688   -9.5569 C.3       9 UNK         0.0264 
     56 CB         31.9883   -0.0112  -10.2453 C.3       9 UNK        -0.1955 
     57 C          33.1420    1.5551   -8.6166 C.2       9 UNK         0.5031 
     58 O          32.9771    1.4827   -7.3942 O.2       9 UNK        -0.5390 
     59 N          34.3307    1.7665   -9.1931 N.am      10 UNK        -0.4204 
     60 CA         35.6009    1.9014   -8.4743 C.3       10 UNK         0.0237 
     61 CB         36.5868    2.7014   -9.3473 C.3       10 UNK        -0.1985 
     62 C          36.1572    0.5252   -8.0570 C.2       10 UNK         0.4970 
     63 O          37.2137    0.1130   -8.5396 O.2       10 UNK        -0.4914 
     64 N          35.4155   -0.1718   -7.1890 N.am      11 UNK        -0.4285 
     65 CA         35.7378   -1.5201   -6.6907 C.3       11 UNK         0.1007 
     66 C          36.9241   -1.5791   -5.6839 C.2       11 UNK         0.5703 
     67 N          37.3953   -0.4627   -5.1403 N.am      11 UNK        -0.7361 
     68 O          37.4314   -2.6608   -5.3964 O.2       11 UNK        -0.4986 
     69 C69        34.4890   -2.2367   -6.1120 C.3       12 UNK        -0.0947 
     70 S70        33.1139   -2.3370   -7.3092 S.3       12 UNK        -0.2240 
     71 C71        31.7810   -1.4643   -6.4285 C.3       12 UNK         0.0194 
     72 H72        23.8714   -1.6150    0.5842 H         1 UNK         0.0906 
     73 H73        24.7031   -2.9408    1.3998 H         1 UNK         0.0906 
     74 H74        24.6020   -1.3562    2.1710 H         1 UNK         0.0906 
     75 H75        26.7066   -3.3407    0.4624 H         1 UNK         0.3140 
     76 H76        28.6526   -1.2839   -0.0033 H         1 UNK         0.1085 
     77 H77        28.7495   -4.1712   -1.0328 H         1 UNK         0.0836 
     78 H78        29.1208   -3.7450    0.6110 H         1 UNK         0.0836 
     79 H79        30.8452   -5.0934   -1.8857 H         1 UNK         0.0731 
     80 H80        32.3071   -4.2074   -2.2101 H         1 UNK         0.0731 
     81 H81        32.3629   -2.3934   -3.9243 H         1 UNK         0.1312 
     82 H82        29.4113   -2.6295   -7.0143 H         1 UNK         0.1406 
     83 H83        28.8787   -4.8157   -3.3575 H         1 UNK         0.1631 
     84 H84        26.8451   -3.8367   -5.0497 H         1 UNK         0.0717 
     85 H85        27.5678   -5.3766   -5.4165 H         1 UNK         0.0717 
     86 H86        27.1368   -1.7800   -6.9230 H         1 UNK         0.0934 
     87 H87        26.7964   -2.1257   -8.5930 H         1 UNK         0.0934 
     88 H88        24.5615   -3.2233   -7.7346 H         1 UNK         0.0739 
     89 H89        25.3932   -1.7541   -5.3017 H         1 UNK         0.3093 
     90 H90        22.4974   -2.5149   -3.5423 H         1 UNK         0.0818 
     91 H91        23.9728   -3.6354   -1.8303 H         1 UNK         0.0819 
     92 H92        23.4710   -4.7245   -3.1140 H         1 UNK         0.0819 
     93 H93        25.1006   -4.0760   -3.1126 H         1 UNK         0.0819 
     94 H94        25.1359   -1.5351   -2.8257 H         1 UNK         0.3041 
     95 H95        24.6311    1.7637   -4.0349 H         1 UNK         0.0784 
     96 H96        23.2087    1.9920   -2.0225 H         1 UNK         0.0793 
     97 H97        24.2737    0.9427   -1.1020 H         1 UNK         0.0793 
     98 H98        24.8440    2.5170   -1.6572 H         1 UNK         0.0793 
     99 H99        26.5455    0.6757   -2.2045 H         1 UNK         0.3024 
    100 H100       28.5306   -1.0589   -4.5004 H         1 UNK         0.1171 
    101 H101       30.3857    0.5086   -3.9565 H         1 UNK         0.0786 
    102 H102       29.3108    1.1903   -5.1593 H         1 UNK         0.0786 
    103 H103       29.2188    1.7519   -3.4942 H         1 UNK         0.0786 
    104 H104       29.2141   -0.2587   -1.9030 H         1 UNK         0.2977 
    105 H105       23.6526   -0.4478   -6.2375 H         1 UNK         0.3127 
    106 H106       22.4615    1.2912   -6.7153 H         1 UNK         0.0770 
    107 H107       22.0375    0.0552   -9.4857 H         1 UNK         0.0814 
    108 H108       21.0908    1.3586   -8.7871 H         1 UNK         0.0814 
    109 H109       21.0629   -0.2332   -8.0471 H         1 UNK         0.0814 
    110 H110       24.3167    0.8151   -9.7361 H         1 UNK         0.2983 
    111 H111       24.6372    3.7010  -10.1514 H         1 UNK         0.0947 
    112 H112       25.7578    1.2898  -11.6836 H         1 UNK         0.0806 
    113 H113       25.8319    2.9636  -12.2158 H         1 UNK         0.0806 
    114 H114       24.2752    2.1629  -12.0754 H         1 UNK         0.0806 
    115 H115       26.4397    1.1725   -8.6512 H         1 UNK         0.3000 
    116 H116       28.3624    0.9549   -7.5901 H         1 UNK         0.0850 
    117 H117       27.8753    3.1594   -6.4961 H         1 UNK         0.0810 
    118 H118       28.7415    3.9990   -7.7807 H         1 UNK         0.0810 
    119 H119       29.6007    2.9248   -6.7013 H         1 UNK         0.0810 
    120 H120       30.9061    1.5687   -7.7711 H         1 UNK         0.3040 
    121 H121       31.9768    2.1584  -10.3106 H         1 UNK         0.0766 
    122 H122       32.9317   -0.1680  -10.7694 H         1 UNK         0.0812 
    123 H123       31.1949   -0.1131  -10.9855 H         1 UNK         0.0812 
    124 H124       31.8755   -0.8234   -9.5284 H         1 UNK         0.0812 
    125 H125       34.3844    1.7785  -10.2019 H         1 UNK         0.3205 
    126 H126       35.4321    2.4740   -7.5595 H         1 UNK         0.0754 
    127 H127       37.5386    2.8421   -8.8330 H         1 UNK         0.0769 
    128 H128       36.1968    3.6930   -9.5782 H         1 UNK         0.0769 
    129 H129       36.7971    2.1958  -10.2908 H         1 UNK         0.0769 
    130 H130       34.5355    0.2293   -6.8842 H         1 UNK         0.2981 
    131 H131       36.0645   -2.1025   -7.5545 H         1 UNK         0.0541 
    132 H132       38.1667   -0.5155   -4.4938 H         1 UNK         0.3459 
    133 H133       36.9864    0.4289   -5.3680 H         1 UNK         0.3459 
    134 H134       34.7349   -3.2581   -5.8158 H         1 UNK         0.0612 
    135 H135       34.1597   -1.7291   -5.2049 H         1 UNK         0.0612 
    136 H136       31.1334   -0.9884   -7.1657 H         1 UNK         0.0624 
    137 H137       32.1884   -0.6536   -5.8231 H         1 UNK         0.0624 
@<TRIPOS>BOND
     1    1    2 1    
     2    1   72 1    
     3    1   73 1    
     4    1   74 1    
     5    2    3 2    
     6    2    4 am   BACKBONE|DICT|INTERRES
     7    4    5 1    
     8    4   75 1    
     9    5    6 1    
    10    5   35 1    
    11    5   76 1    
    12    6    7 1    
    13    6   77 1    
    14    6   78 1    
    15    7    8 1    
    16    8    9 1    
    17    8   79 1    
    18    8   80 1    
    19    9   10 ar   
    20    9   14 ar   
    21   10   11 ar   
    22   10   81 1    
    23   11   12 ar   
    24   11   71 1    
    25   12   13 ar   
    26   12   82 1    
    27   13   14 ar   
    28   13   15 1    
    29   14   83 1    
    30   15   16 1    
    31   15   84 1    
    32   15   85 1    
    33   16   17 1    
    34   17   18 1    
    35   17   86 1    
    36   17   87 1    
    37   18   19 1    
    38   18   37 1    
    39   18   88 1    
    40   19   20 am   BACKBONE|DICT|INTERRES
    41   19   89 1    
    42   20   21 2    
    43   20   22 1    
    44   22   23 1    
    45   22   24 1    
    46   22   90 1    
    47   23   91 1    
    48   23   92 1    
    49   23   93 1    
    50   24   25 am   BACKBONE|DICT|INTERRES
    51   24   94 1    
    52   25   26 2    
    53   25   27 1    
    54   27   28 1    
    55   27   29 1    
    56   27   95 1    
    57   28   96 1    
    58   28   97 1    
    59   28   98 1    
    60   29   30 am   BACKBONE|DICT|INTERRES
    61   29   99 1    
    62   30   31 2    
    63   30   32 1    
    64   32   33 1    
    65   32   34 1    
    66   32  100 1    
    67   33  101 1    
    68   33  102 1    
    69   33  103 1    
    70   34   35 am   BACKBONE|DICT|INTERRES
    71   34  104 1    
    72   35   36 2    
    73   37   38 2    
    74   37   39 am   BACKBONE|DICT|INTERRES
    75   39   40 1    
    76   39  105 1    
    77   40   41 1    
    78   40   42 1    
    79   40  106 1    
    80   41  107 1    
    81   41  108 1    
    82   41  109 1    
    83   42   43 2    
    84   42   44 am   BACKBONE|DICT|INTERRES
    85   44   45 1    
    86   44  110 1    
    87   45   46 1    
    88   45   47 1    
    89   45  111 1    
    90   46  112 1    
    91   46  113 1    
    92   46  114 1    
    93   47   48 2    
    94   47   49 am   BACKBONE|DICT|INTERRES
    95   49   50 1    
    96   49  115 1    
    97   50   51 1    
    98   50   52 1    
    99   50  116 1    
   100   51  117 1    
   101   51  118 1    
   102   51  119 1    
   103   52   53 2    
   104   52   54 am   BACKBONE|DICT|INTERRES
   105   54   55 1    
   106   54  120 1    
   107   55   56 1    
   108   55   57 1    
   109   55  121 1    
   110   56  122 1    
   111   56  123 1    
   112   56  124 1    
   113   57   58 2    
   114   57   59 am   BACKBONE|DICT|INTERRES
   115   59   60 1    
   116   59  125 1    
   117   60   61 1    
   118   60   62 1    
   119   60  126 1    
   120   61  127 1    
   121   61  128 1    
   122   61  129 1    
   123   62   63 2    
   124   62   64 am   BACKBONE|DICT|INTERRES
   125   64   65 1    
   126   64  130 1    
   127   65   66 1    
   128   65   69 1    
   129   65  131 1    
   130   66   67 am   BACKBONE|DICT|INTERRES
   131   66   68 2    
   132   67  132 1    
   133   67  133 1    
   134   69   70 1    
   135   69  134 1    
   136   69  135 1    
   137   70   71 1    
   138   71  136 1    
   139   71  137 1    
@<TRIPOS>SUBSTRUCTURE
     1 UNK         1 GROUP             0       ****    0 ROOT    
