@<TRIPOS>MOLECULE
3R137
137   139    1
SMALL
USER_CHARGES


@<TRIPOS>ATOM
      1 CA         31.3396   -4.3590   -5.2143 C.3       0 UNK        -0.2020 
      2 C          30.2676   -5.2424   -4.5907 C.2       0 UNK         0.4855 
      3 O          30.2253   -6.4421   -4.8633 O.2       0 UNK        -0.5197 
      4 N          29.3995   -4.6586   -3.7608 N.am      1 UNK        -0.4892 
      5 CA         28.2704   -5.3049   -3.0950 C.3       1 UNK         0.0835 
      6 C6         28.7175   -6.1292   -1.8499 C.3       12 UNK        -0.0855 
      7 S7         28.9365   -5.2421   -0.2622 S.3       12 UNK        -0.2931 
      8 C8         30.5119   -4.3400   -0.4875 C.3       12 UNK         0.0378 
      9 C9         30.3487   -2.9575   -1.1202 C.ar      12 UNK        -0.0802 
     10 C10        31.3135   -2.4826   -2.0147 C.ar      12 UNK        -0.0944 
     11 C11        31.1780   -1.2261   -2.6153 C.ar      12 UNK        -0.0787 
     12 C12        30.0583   -0.4431   -2.3126 C.ar      12 UNK        -0.0862 
     13 C13        29.0870   -0.8942   -1.4101 C.ar      12 UNK        -0.0733 
     14 C14        29.2556   -2.1420   -0.8055 C.ar      12 UNK        -0.0832 
     15 C15        27.8166   -0.1002   -1.1053 C.3       12 UNK         0.0240 
     16 S16        27.9926    1.7065   -1.2924 S.3       12 UNK        -0.2522 
     17 C17        26.6163    2.1192   -2.4149 C.3       12 UNK        -0.0967 
     18 CA         27.0402    2.0738   -3.9054 C.3       5 UNK         0.0660 
     19 N          27.1441    0.6992   -4.4084 N.am      5 UNK        -0.4015 
     20 C          27.6685    0.3618   -5.5946 C.2       4 UNK         0.4946 
     21 O          28.2051    1.1627   -6.3557 O.2       4 UNK        -0.5353 
     22 CA         27.4936   -1.0912   -6.0587 C.3       4 UNK         0.0277 
     23 CB         28.7608   -1.9152   -5.8023 C.3       4 UNK        -0.1981 
     24 N          26.3268   -1.7539   -5.4715 N.am      4 UNK        -0.4209 
     25 C          25.0595   -1.4318   -5.7717 C.2       3 UNK         0.4942 
     26 O          24.7694   -0.4827   -6.5022 O.2       3 UNK        -0.5208 
     27 CA         23.9266   -2.2883   -5.1772 C.3       3 UNK         0.0250 
     28 CB         23.3294   -3.1990   -6.2619 C.3       3 UNK        -0.1990 
     29 N          24.3450   -3.1117   -4.0395 N.am      3 UNK        -0.4232 
     30 C          24.5048   -2.6519   -2.7914 C.2       2 UNK         0.4993 
     31 O          24.2900   -1.4858   -2.4586 O.2       2 UNK        -0.5286 
     32 CA         25.0344   -3.6537   -1.7461 C.3       2 UNK         0.0209 
     33 CB         23.8737   -4.4452   -1.1224 C.3       2 UNK        -0.1931 
     34 N          26.0617   -4.5909   -2.2320 N.am      2 UNK        -0.4546 
     35 C          27.2045   -4.2218   -2.8284 C.2       1 UNK         0.5154 
     36 O          27.4290   -3.0604   -3.1750 O.2       1 UNK        -0.5181 
     37 C          26.1015    2.9495   -4.7674 C.2       5 UNK         0.5014 
     38 O          26.3167    4.1609   -4.8295 O.2       5 UNK        -0.5248 
     39 N          25.0930    2.3457   -5.4161 N.am      6 UNK        -0.4434 
     40 CA         24.1980    3.0335   -6.3481 C.3       6 UNK         0.0363 
     41 CB         22.8207    2.3496   -6.3538 C.3       6 UNK        -0.1936 
     42 C          24.7932    3.0800   -7.7640 C.2       6 UNK         0.5081 
     43 O          24.6890    4.1128   -8.4259 O.2       6 UNK        -0.5248 
     44 N          25.4023    1.9692   -8.2062 N.am      7 UNK        -0.4718 
     45 CA         26.0181    1.8406   -9.5320 C.3       7 UNK         0.0273 
     46 CB         26.2740    0.3565   -9.8356 C.3       7 UNK        -0.1935 
     47 C          27.3170    2.6508   -9.6954 C.2       7 UNK         0.5018 
     48 O          27.6057    3.1008  -10.8052 O.2       7 UNK        -0.5186 
     49 N          28.0848    2.7968   -8.6056 N.am      8 UNK        -0.4240 
     50 CA         29.3769    3.4794   -8.4581 C.3       8 UNK         0.0235 
     51 CB         29.2847    4.9749   -8.8197 C.3       8 UNK        -0.2000 
     52 C          30.5331    2.7840   -9.1951 C.2       8 UNK         0.4941 
     53 O          31.5333    2.4403   -8.5649 O.2       8 UNK        -0.5273 
     54 N          30.3737    2.5633  -10.5067 N.am      9 UNK        -0.4262 
     55 CA         31.3570    1.9260  -11.3898 C.3       9 UNK         0.0264 
     56 CB         30.8680    2.0213  -12.8436 C.3       9 UNK        -0.1955 
     57 C          31.6675    0.4646  -11.0213 C.2       9 UNK         0.5031 
     58 O          32.7838    0.0032  -11.2624 O.2       9 UNK        -0.5390 
     59 N          30.6916   -0.2255  -10.4146 N.am      10 UNK        -0.4204 
     60 CA         30.7966   -1.6058   -9.9332 C.3       10 UNK         0.0237 
     61 CB         29.4096   -2.0811   -9.4752 C.3       10 UNK        -0.1985 
     62 C          31.8425   -1.8149   -8.8203 C.2       10 UNK         0.4970 
     63 O          32.3132   -2.9410   -8.6573 O.2       10 UNK        -0.4914 
     64 N          32.2030   -0.7467   -8.0955 N.am      11 UNK        -0.4285 
     65 CA         33.3115   -0.7416   -7.1278 C.3       11 UNK         0.1007 
     66 C          34.7200   -0.6314   -7.7846 C.2       11 UNK         0.5703 
     67 N          34.8464   -0.4201   -9.0909 N.am      11 UNK        -0.7361 
     68 O          35.7273   -0.7560   -7.0919 O.2       11 UNK        -0.4986 
     69 C69        33.1164    0.3381   -6.0311 C.3       12 UNK        -0.0947 
     70 S70        31.5953    0.0736   -5.0646 S.3       12 UNK        -0.2240 
     71 C71        32.2617   -0.7151   -3.5624 C.3       12 UNK         0.0194 
     72 H72        31.2806   -4.4053   -6.3016 H         1 UNK         0.0906 
     73 H73        31.2348   -3.3160   -4.9181 H         1 UNK         0.0906 
     74 H74        32.3297   -4.6988   -4.9121 H         1 UNK         0.0906 
     75 H75        29.4313   -3.6605   -3.5836 H         1 UNK         0.3140 
     76 H76        27.8214   -5.9930   -3.8148 H         1 UNK         0.1085 
     77 H77        29.6322   -6.6824   -2.0686 H         1 UNK         0.0836 
     78 H78        27.9696   -6.9014   -1.6635 H         1 UNK         0.0836 
     79 H79        31.1939   -4.9566   -1.0753 H         1 UNK         0.0731 
     80 H80        30.9777   -4.2112    0.4901 H         1 UNK         0.0731 
     81 H81        32.1752   -3.0949   -2.2437 H         1 UNK         0.1312 
     82 H82        29.9445    0.5180   -2.7930 H         1 UNK         0.1406 
     83 H83        28.5058   -2.4962   -0.1119 H         1 UNK         0.1631 
     84 H84        27.4938   -0.2962   -0.0817 H         1 UNK         0.0717 
     85 H85        27.0221   -0.4760   -1.7504 H         1 UNK         0.0717 
     86 H86        25.7563    1.4745   -2.2226 H         1 UNK         0.0934 
     87 H87        26.2962    3.1256   -2.1356 H         1 UNK         0.0934 
     88 H88        28.0323    2.5231   -3.9934 H         1 UNK         0.0739 
     89 H89        26.7293   -0.0289   -3.8456 H         1 UNK         0.3093 
     90 H90        27.3294   -1.0680   -7.1354 H         1 UNK         0.0818 
     91 H91        28.6197   -2.9608   -6.0743 H         1 UNK         0.0819 
     92 H92        29.5926   -1.5380   -6.3963 H         1 UNK         0.0819 
     93 H93        29.0672   -1.8668   -4.7580 H         1 UNK         0.0819 
     94 H94        26.5163   -2.4672   -4.7738 H         1 UNK         0.3041 
     95 H95        23.1450   -1.6021   -4.8437 H         1 UNK         0.0784 
     96 H96        22.9773   -2.6137   -7.1128 H         1 UNK         0.0793 
     97 H97        24.0621   -3.9135   -6.6394 H         1 UNK         0.0793 
     98 H98        22.4753   -3.7606   -5.8827 H         1 UNK         0.0793 
     99 H99        24.5528   -4.0826   -4.2241 H         1 UNK         0.3024 
    100 H100       25.5004   -3.0593   -0.9568 H         1 UNK         0.1171 
    101 H101       24.2139   -5.0567   -0.2864 H         1 UNK         0.0786 
    102 H102       23.1048   -3.7738   -0.7368 H         1 UNK         0.0786 
    103 H103       23.3968   -5.1038   -1.8493 H         1 UNK         0.0786 
    104 H104       25.9392   -5.5612   -1.9799 H         1 UNK         0.2977 
    105 H105       24.9993    1.3388   -5.3657 H         1 UNK         0.3127 
    106 H106       24.0516    4.0631   -6.0135 H         1 UNK         0.0770 
    107 H107       22.8730    1.3215   -6.7124 H         1 UNK         0.0814 
    108 H108       22.1272    2.8833   -7.0049 H         1 UNK         0.0814 
    109 H109       22.3813    2.3348   -5.3564 H         1 UNK         0.0814 
    110 H110       25.3882    1.1422   -7.6183 H         1 UNK         0.2983 
    111 H111       25.3057    2.2180  -10.2692 H         1 UNK         0.0947 
    112 H112       27.0140   -0.0688   -9.1602 H         1 UNK         0.0806 
    113 H113       26.6482    0.2254  -10.8519 H         1 UNK         0.0806 
    114 H114       25.3605   -0.2324   -9.7479 H         1 UNK         0.0806 
    115 H115       27.8064    2.2866   -7.7688 H         1 UNK         0.3000 
    116 H116       29.6109    3.4190   -7.3936 H         1 UNK         0.0850 
    117 H117       30.2275    5.4823   -8.6116 H         1 UNK         0.0810 
    118 H118       28.5119    5.4738   -8.2347 H         1 UNK         0.0810 
    119 H119       29.0591    5.1326   -9.8745 H         1 UNK         0.0810 
    120 H120       29.4893    2.8527  -10.9186 H         1 UNK         0.3040 
    121 H121       32.2897    2.4873  -11.3032 H         1 UNK         0.0766 
    122 H122       31.5887    1.5723  -13.5287 H         1 UNK         0.0812 
    123 H123       30.7354    3.0591  -13.1502 H         1 UNK         0.0812 
    124 H124       29.9172    1.5056  -12.9849 H         1 UNK         0.0812 
    125 H125       29.8146    0.2473  -10.2563 H         1 UNK         0.3205 
    126 H126       31.1065   -2.2248  -10.7777 H         1 UNK         0.0754 
    127 H127       29.4510   -3.0933   -9.0698 H         1 UNK         0.0769 
    128 H128       28.7004   -2.0935  -10.3032 H         1 UNK         0.0769 
    129 H129       29.0076   -1.4324   -8.6997 H         1 UNK         0.0769 
    130 H130       31.7872    0.1547   -8.2904 H         1 UNK         0.2981 
    131 H131       33.3102   -1.7080   -6.6197 H         1 UNK         0.0541 
    132 H132       35.7706   -0.3599   -9.4870 H         1 UNK         0.3459 
    133 H133       34.0374   -0.3208   -9.6936 H         1 UNK         0.3459 
    134 H134       33.9653    0.3595   -5.3453 H         1 UNK         0.0612 
    135 H135       33.0663    1.3308   -6.4814 H         1 UNK         0.0612 
    136 H136       32.9163   -1.5338   -3.8653 H         1 UNK         0.0624 
    137 H137       32.8839    0.0045   -3.0290 H         1 UNK         0.0624 
@<TRIPOS>BOND
     1    1    2 1    
     2    1   72 1    
     3    1   73 1    
     4    1   74 1    
     5    2    3 2    
     6    2    4 am   BACKBONE|DICT|INTERRES
     7    4    5 1    
     8    4   75 1    
     9    5    6 1    
    10    5   35 1    
    11    5   76 1    
    12    6    7 1    
    13    6   77 1    
    14    6   78 1    
    15    7    8 1    
    16    8    9 1    
    17    8   79 1    
    18    8   80 1    
    19    9   10 ar   
    20    9   14 ar   
    21   10   11 ar   
    22   10   81 1    
    23   11   12 ar   
    24   11   71 1    
    25   12   13 ar   
    26   12   82 1    
    27   13   14 ar   
    28   13   15 1    
    29   14   83 1    
    30   15   16 1    
    31   15   84 1    
    32   15   85 1    
    33   16   17 1    
    34   17   18 1    
    35   17   86 1    
    36   17   87 1    
    37   18   19 1    
    38   18   37 1    
    39   18   88 1    
    40   19   20 am   BACKBONE|DICT|INTERRES
    41   19   89 1    
    42   20   21 2    
    43   20   22 1    
    44   22   23 1    
    45   22   24 1    
    46   22   90 1    
    47   23   91 1    
    48   23   92 1    
    49   23   93 1    
    50   24   25 am   BACKBONE|DICT|INTERRES
    51   24   94 1    
    52   25   26 2    
    53   25   27 1    
    54   27   28 1    
    55   27   29 1    
    56   27   95 1    
    57   28   96 1    
    58   28   97 1    
    59   28   98 1    
    60   29   30 am   BACKBONE|DICT|INTERRES
    61   29   99 1    
    62   30   31 2    
    63   30   32 1    
    64   32   33 1    
    65   32   34 1    
    66   32  100 1    
    67   33  101 1    
    68   33  102 1    
    69   33  103 1    
    70   34   35 am   BACKBONE|DICT|INTERRES
    71   34  104 1    
    72   35   36 2    
    73   37   38 2    
    74   37   39 am   BACKBONE|DICT|INTERRES
    75   39   40 1    
    76   39  105 1    
    77   40   41 1    
    78   40   42 1    
    79   40  106 1    
    80   41  107 1    
    81   41  108 1    
    82   41  109 1    
    83   42   43 2    
    84   42   44 am   BACKBONE|DICT|INTERRES
    85   44   45 1    
    86   44  110 1    
    87   45   46 1    
    88   45   47 1    
    89   45  111 1    
    90   46  112 1    
    91   46  113 1    
    92   46  114 1    
    93   47   48 2    
    94   47   49 am   BACKBONE|DICT|INTERRES
    95   49   50 1    
    96   49  115 1    
    97   50   51 1    
    98   50   52 1    
    99   50  116 1    
   100   51  117 1    
   101   51  118 1    
   102   51  119 1    
   103   52   53 2    
   104   52   54 am   BACKBONE|DICT|INTERRES
   105   54   55 1    
   106   54  120 1    
   107   55   56 1    
   108   55   57 1    
   109   55  121 1    
   110   56  122 1    
   111   56  123 1    
   112   56  124 1    
   113   57   58 2    
   114   57   59 am   BACKBONE|DICT|INTERRES
   115   59   60 1    
   116   59  125 1    
   117   60   61 1    
   118   60   62 1    
   119   60  126 1    
   120   61  127 1    
   121   61  128 1    
   122   61  129 1    
   123   62   63 2    
   124   62   64 am   BACKBONE|DICT|INTERRES
   125   64   65 1    
   126   64  130 1    
   127   65   66 1    
   128   65   69 1    
   129   65  131 1    
   130   66   67 am   BACKBONE|DICT|INTERRES
   131   66   68 2    
   132   67  132 1    
   133   67  133 1    
   134   69   70 1    
   135   69  134 1    
   136   69  135 1    
   137   70   71 1    
   138   71  136 1    
   139   71  137 1    
@<TRIPOS>SUBSTRUCTURE
     1 UNK         1 GROUP             0       ****    0 ROOT    
