@<TRIPOS>MOLECULE
3R137
137   139    1
SMALL
USER_CHARGES


@<TRIPOS>ATOM
      1 CA         27.0549   -7.1925    1.1777 C.3       0 UNK        -0.2020 
      2 C          26.7672   -5.7010    1.0921 C.2       0 UNK         0.4855 
      3 O          26.1733   -5.1380    2.0127 O.2       0 UNK        -0.5197 
      4 N          27.1932   -5.0561   -0.0007 N.am      1 UNK        -0.4892 
      5 CA         26.9605   -3.6346   -0.2822 C.3       1 UNK         0.0835 
      6 C6         27.8530   -3.1243   -1.4408 C.3       12 UNK        -0.0855 
      7 S7         29.6332   -3.3678   -1.1162 S.3       12 UNK        -0.2931 
      8 C8         30.1851   -1.6837   -0.6983 C.3       12 UNK         0.0378 
      9 C9         30.1422   -0.7557   -1.9039 C.ar      12 UNK        -0.0802 
     10 C10        31.0657   -0.9098   -2.9417 C.ar      12 UNK        -0.0944 
     11 C11        31.0296   -0.0667   -4.0560 C.ar      12 UNK        -0.0787 
     12 C12        30.0710    0.9475   -4.1209 C.ar      12 UNK        -0.0862 
     13 C13        29.1360    1.1056   -3.0922 C.ar      12 UNK        -0.0733 
     14 C14        29.1807    0.2555   -1.9838 C.ar      12 UNK        -0.0832 
     15 C15        28.0719    2.1895   -3.1761 C.3       12 UNK         0.0240 
     16 S16        26.9700    1.9535   -4.6047 S.3       12 UNK        -0.2522 
     17 C17        26.1578    0.3596   -4.2158 C.3       12 UNK        -0.0967 
     18 CA         26.7104   -0.8772   -4.9779 C.3       5 UNK         0.0660 
     19 N          25.9367   -2.0816   -4.6502 N.am      5 UNK        -0.4015 
     20 C          26.2381   -3.3256   -5.0602 C.2       4 UNK         0.4946 
     21 O          27.2837   -3.6041   -5.6489 O.2       4 UNK        -0.5353 
     22 CA         25.2295   -4.4617   -4.7853 C.3       4 UNK         0.0277 
     23 CB         25.8899   -5.6506   -4.0634 C.3       4 UNK        -0.1981 
     24 N          24.0486   -4.0320   -4.0316 N.am      4 UNK        -0.4209 
     25 C          22.9522   -3.4886   -4.5825 C.2       3 UNK         0.4942 
     26 O          22.8010   -3.3473   -5.7962 O.2       3 UNK        -0.5208 
     27 CA         21.8366   -3.0002   -3.6359 C.3       3 UNK         0.0250 
     28 CB         20.6915   -4.0247   -3.5833 C.3       3 UNK        -0.1990 
     29 N          22.2809   -2.7090   -2.2692 N.am      3 UNK        -0.4232 
     30 C          23.1938   -1.7884   -1.9302 C.2       2 UNK         0.4993 
     31 O          23.7585   -1.0602   -2.7459 O.2       2 UNK        -0.5286 
     32 CA         23.6030   -1.7038   -0.4473 C.3       2 UNK         0.0209 
     33 CB         22.6339   -2.4264    0.5172 C.3       2 UNK        -0.1931 
     34 N          24.9783   -2.1809   -0.2399 N.am      2 UNK        -0.4546 
     35 C          25.4726   -3.3764   -0.5985 C.2       1 UNK         0.5154 
     36 O          24.8164   -4.2414   -1.1872 O.2       1 UNK        -0.5181 
     37 C          26.7321   -0.6480   -6.5066 C.2       5 UNK         0.5014 
     38 O          25.6807   -0.7117   -7.1492 O.2       5 UNK        -0.5248 
     39 N          27.9187   -0.3440   -7.0429 N.am      6 UNK        -0.4434 
     40 CA         28.1448    0.0193   -8.4405 C.3       6 UNK         0.0363 
     41 CB         28.5670   -1.2233   -9.2460 C.3       6 UNK        -0.1936 
     42 C          29.1586    1.1699   -8.5122 C.2       6 UNK         0.5081 
     43 O          30.0909    1.1288   -9.3183 O.2       6 UNK        -0.5248 
     44 N          28.9594    2.1881   -7.6597 N.am      7 UNK        -0.4718 
     45 CA         29.8180    3.3731   -7.5236 C.3       7 UNK         0.0273 
     46 CB         29.2702    4.2888   -6.4180 C.3       7 UNK        -0.1935 
     47 C          30.0098    4.1752   -8.8213 C.2       7 UNK         0.5018 
     48 O          31.0874    4.7336   -9.0235 O.2       7 UNK        -0.5186 
     49 N          29.0002    4.1632   -9.7037 N.am      8 UNK        -0.4240 
     50 CA         29.0412    4.7621  -11.0433 C.3       8 UNK         0.0235 
     51 CB         27.6526    4.6426  -11.6919 C.3       8 UNK        -0.2000 
     52 C          30.1193    4.1606  -11.9676 C.2       8 UNK         0.4941 
     53 O          30.5892    4.8557  -12.8690 O.2       8 UNK        -0.5273 
     54 N          30.5031    2.9017  -11.7165 N.am      9 UNK        -0.4262 
     55 CA         31.5975    2.1971  -12.3862 C.3       9 UNK         0.0264 
     56 CB         31.0544    0.8566  -12.9149 C.3       9 UNK        -0.1955 
     57 C          32.7877    1.9634  -11.4356 C.2       9 UNK         0.5031 
     58 O          33.6958    1.2121  -11.7951 O.2       9 UNK        -0.5390 
     59 N          32.7465    2.5471  -10.2248 N.am      10 UNK        -0.4204 
     60 CA         33.6625    2.3363   -9.0935 C.3       10 UNK         0.0237 
     61 CB         35.0246    3.0026   -9.3795 C.3       10 UNK        -0.1985 
     62 C          33.8022    0.8547   -8.6762 C.2       10 UNK         0.4970 
     63 O          34.8593    0.4598   -8.1813 O.2       10 UNK        -0.4914 
     64 N          32.7481    0.0602   -8.9151 N.am      11 UNK        -0.4285 
     65 CA         32.7261   -1.4090   -8.8259 C.3       11 UNK         0.1007 
     66 C          33.7260   -2.1380   -9.7797 C.2       11 UNK         0.5703 
     67 N          34.2167   -1.5080  -10.8416 N.am      11 UNK        -0.7361 
     68 O          34.0389   -3.3100   -9.5818 O.2       11 UNK        -0.4986 
     69 C69        32.7825   -1.9261   -7.3608 C.3       12 UNK        -0.0947 
     70 S70        31.3087   -1.4455   -6.4017 S.3       12 UNK        -0.2240 
     71 C71        32.0072   -0.2784   -5.1994 C.3       12 UNK         0.0194 
     72 H72        26.1217   -7.7503    1.2510 H         1 UNK         0.0906 
     73 H73        27.5981   -7.5543    0.3048 H         1 UNK         0.0906 
     74 H74        27.6525   -7.4096    2.0627 H         1 UNK         0.0906 
     75 H75        27.6793   -5.5666   -0.7235 H         1 UNK         0.3140 
     76 H76        27.2150   -3.0746    0.6206 H         1 UNK         0.1085 
     77 H77        27.6567   -2.0704   -1.6409 H         1 UNK         0.0836 
     78 H78        27.6179   -3.6457   -2.3689 H         1 UNK         0.0836 
     79 H79        31.2077   -1.7318   -0.3211 H         1 UNK         0.0731 
     80 H80        29.5764   -1.2955    0.1199 H         1 UNK         0.0731 
     81 H81        31.8009   -1.7016   -2.8898 H         1 UNK         0.1312 
     82 H82        30.0386    1.5983   -4.9827 H         1 UNK         0.1406 
     83 H83        28.4628    0.3774   -1.1841 H         1 UNK         0.1631 
     84 H84        28.5583    3.1622   -3.2554 H         1 UNK         0.0717 
     85 H85        27.4700    2.2242   -2.2666 H         1 UNK         0.0717 
     86 H86        26.2102    0.1851   -3.1400 H         1 UNK         0.0934 
     87 H87        25.0971    0.4851   -4.4409 H         1 UNK         0.0934 
     88 H88        27.7338   -1.0551   -4.6398 H         1 UNK         0.0739 
     89 H89        25.0577   -1.9225   -4.1710 H         1 UNK         0.3093 
     90 H90        24.9058   -4.8223   -5.7640 H         1 UNK         0.0818 
     91 H91        26.7423   -6.0302   -4.6284 H         1 UNK         0.0819 
     92 H92        26.2520   -5.3809   -3.0731 H         1 UNK         0.0819 
     93 H93        25.1899   -6.4778   -3.9459 H         1 UNK         0.0819 
     94 H94        24.1080   -4.1100   -3.0190 H         1 UNK         0.3041 
     95 H95        21.4455   -2.0711   -4.0559 H         1 UNK         0.0784 
     96 H96        20.3142   -4.2411   -4.5839 H         1 UNK         0.0793 
     97 H97        21.0161   -4.9700   -3.1462 H         1 UNK         0.0793 
     98 H98        19.8511   -3.6528   -2.9968 H         1 UNK         0.0793 
     99 H99        21.9029   -3.2921   -1.5365 H         1 UNK         0.3024 
    100 H100       23.5917   -0.6420   -0.1944 H         1 UNK         0.1171 
    101 H101       22.9120   -2.2419    1.5550 H         1 UNK         0.0786 
    102 H102       21.6114   -2.0657    0.3953 H         1 UNK         0.0786 
    103 H103       22.6281   -3.5072    0.3712 H         1 UNK         0.0786 
    104 H104       25.5994   -1.5187    0.2040 H         1 UNK         0.2977 
    105 H105       28.7361   -0.3188   -6.4468 H         1 UNK         0.3127 
    106 H106       27.2223    0.4081   -8.8768 H         1 UNK         0.0770 
    107 H107       29.4626   -1.6837   -8.8319 H         1 UNK         0.0814 
    108 H108       28.7742   -0.9705  -10.2866 H         1 UNK         0.0814 
    109 H109       27.7787   -1.9761   -9.2468 H         1 UNK         0.0814 
    110 H110       28.1624    2.1381   -7.0390 H         1 UNK         0.2983 
    111 H111       30.8060    3.0227   -7.2178 H         1 UNK         0.0947 
    112 H112       29.8667    5.1981   -6.3295 H         1 UNK         0.0806 
    113 H113       29.2964    3.8002   -5.4462 H         1 UNK         0.0806 
    114 H114       28.2412    4.5919   -6.6150 H         1 UNK         0.0806 
    115 H115       28.1545    3.6746   -9.4477 H         1 UNK         0.3000 
    116 H116       29.2745    5.8221  -10.9222 H         1 UNK         0.0850 
    117 H117       27.6427    5.1045  -12.6804 H         1 UNK         0.0810 
    118 H118       26.8901    5.1442  -11.0956 H         1 UNK         0.0810 
    119 H119       27.3528    3.6012  -11.8165 H         1 UNK         0.0810 
    120 H120       30.0743    2.4026  -10.9432 H         1 UNK         0.3040 
    121 H121       31.9715    2.7770  -13.2322 H         1 UNK         0.0766 
    122 H122       30.2149    1.0097  -13.5931 H         1 UNK         0.0812 
    123 H123       30.7162    0.2115  -12.1026 H         1 UNK         0.0812 
    124 H124       31.8196    0.3111  -13.4687 H         1 UNK         0.0812 
    125 H125       31.9826    3.1865  -10.0352 H         1 UNK         0.3205 
    126 H126       33.2159    2.8478   -8.2400 H         1 UNK         0.0754 
    127 H127       35.6708    2.9716   -8.5013 H         1 UNK         0.0769 
    128 H128       34.9026    4.0509   -9.6519 H         1 UNK         0.0769 
    129 H129       35.5542    2.5040  -10.1922 H         1 UNK         0.0769 
    130 H130       31.8932    0.4831   -9.2655 H         1 UNK         0.2981 
    131 H131       31.7543   -1.6954   -9.2261 H         1 UNK         0.0541 
    132 H132       34.8498   -2.0005  -11.4504 H         1 UNK         0.3459 
    133 H133       33.9757   -0.5423  -11.0458 H         1 UNK         0.3459 
    134 H134       33.6924   -1.5896   -6.8628 H         1 UNK         0.0612 
    135 H135       32.8145   -3.0163   -7.3361 H         1 UNK         0.0612 
    136 H136       32.9510   -0.6644   -4.8114 H         1 UNK         0.0624 
    137 H137       32.2334    0.6655   -5.6979 H         1 UNK         0.0624 
@<TRIPOS>BOND
     1    1    2 1    
     2    1   72 1    
     3    1   73 1    
     4    1   74 1    
     5    2    3 2    
     6    2    4 am   BACKBONE|DICT|INTERRES
     7    4    5 1    
     8    4   75 1    
     9    5    6 1    
    10    5   35 1    
    11    5   76 1    
    12    6    7 1    
    13    6   77 1    
    14    6   78 1    
    15    7    8 1    
    16    8    9 1    
    17    8   79 1    
    18    8   80 1    
    19    9   10 ar   
    20    9   14 ar   
    21   10   11 ar   
    22   10   81 1    
    23   11   12 ar   
    24   11   71 1    
    25   12   13 ar   
    26   12   82 1    
    27   13   14 ar   
    28   13   15 1    
    29   14   83 1    
    30   15   16 1    
    31   15   84 1    
    32   15   85 1    
    33   16   17 1    
    34   17   18 1    
    35   17   86 1    
    36   17   87 1    
    37   18   19 1    
    38   18   37 1    
    39   18   88 1    
    40   19   20 am   BACKBONE|DICT|INTERRES
    41   19   89 1    
    42   20   21 2    
    43   20   22 1    
    44   22   23 1    
    45   22   24 1    
    46   22   90 1    
    47   23   91 1    
    48   23   92 1    
    49   23   93 1    
    50   24   25 am   BACKBONE|DICT|INTERRES
    51   24   94 1    
    52   25   26 2    
    53   25   27 1    
    54   27   28 1    
    55   27   29 1    
    56   27   95 1    
    57   28   96 1    
    58   28   97 1    
    59   28   98 1    
    60   29   30 am   BACKBONE|DICT|INTERRES
    61   29   99 1    
    62   30   31 2    
    63   30   32 1    
    64   32   33 1    
    65   32   34 1    
    66   32  100 1    
    67   33  101 1    
    68   33  102 1    
    69   33  103 1    
    70   34   35 am   BACKBONE|DICT|INTERRES
    71   34  104 1    
    72   35   36 2    
    73   37   38 2    
    74   37   39 am   BACKBONE|DICT|INTERRES
    75   39   40 1    
    76   39  105 1    
    77   40   41 1    
    78   40   42 1    
    79   40  106 1    
    80   41  107 1    
    81   41  108 1    
    82   41  109 1    
    83   42   43 2    
    84   42   44 am   BACKBONE|DICT|INTERRES
    85   44   45 1    
    86   44  110 1    
    87   45   46 1    
    88   45   47 1    
    89   45  111 1    
    90   46  112 1    
    91   46  113 1    
    92   46  114 1    
    93   47   48 2    
    94   47   49 am   BACKBONE|DICT|INTERRES
    95   49   50 1    
    96   49  115 1    
    97   50   51 1    
    98   50   52 1    
    99   50  116 1    
   100   51  117 1    
   101   51  118 1    
   102   51  119 1    
   103   52   53 2    
   104   52   54 am   BACKBONE|DICT|INTERRES
   105   54   55 1    
   106   54  120 1    
   107   55   56 1    
   108   55   57 1    
   109   55  121 1    
   110   56  122 1    
   111   56  123 1    
   112   56  124 1    
   113   57   58 2    
   114   57   59 am   BACKBONE|DICT|INTERRES
   115   59   60 1    
   116   59  125 1    
   117   60   61 1    
   118   60   62 1    
   119   60  126 1    
   120   61  127 1    
   121   61  128 1    
   122   61  129 1    
   123   62   63 2    
   124   62   64 am   BACKBONE|DICT|INTERRES
   125   64   65 1    
   126   64  130 1    
   127   65   66 1    
   128   65   69 1    
   129   65  131 1    
   130   66   67 am   BACKBONE|DICT|INTERRES
   131   66   68 2    
   132   67  132 1    
   133   67  133 1    
   134   69   70 1    
   135   69  134 1    
   136   69  135 1    
   137   70   71 1    
   138   71  136 1    
   139   71  137 1    
@<TRIPOS>SUBSTRUCTURE
     1 UNK         1 GROUP             0       ****    0 ROOT    
