@<TRIPOS>MOLECULE
3R137
137   139    1
SMALL
USER_CHARGES


@<TRIPOS>ATOM
      1 CA         25.9980   -6.1060   -6.1850 C.3       0 UNK        -0.2020 
      2 C          26.1433   -5.4140   -4.8388 C.2       0 UNK         0.4855 
      3 O          25.1369   -5.0550   -4.2267 O.2       0 UNK        -0.5197 
      4 N          27.3862   -5.2164   -4.3759 N.am      1 UNK        -0.4892 
      5 CA         27.7195   -4.5602   -3.1062 C.3       1 UNK         0.0835 
      6 C6         29.2415   -4.5964   -2.8299 C.3       12 UNK        -0.0855 
      7 S7         29.6183   -4.2424   -1.0819 S.3       12 UNK        -0.2931 
      8 C8         31.4210   -3.9843   -1.1587 C.3       12 UNK         0.0378 
      9 C9         31.8810   -2.6424   -1.7340 C.ar      12 UNK        -0.0802 
     10 C10        33.1782   -2.5602   -2.2469 C.ar      12 UNK        -0.0944 
     11 C11        33.7025   -1.3469   -2.6997 C.ar      12 UNK        -0.0787 
     12 C12        32.9098   -0.1955   -2.6367 C.ar      12 UNK        -0.0862 
     13 C13        31.6110   -0.2516   -2.1148 C.ar      12 UNK        -0.0733 
     14 C14        31.0981   -1.4799   -1.6787 C.ar      12 UNK        -0.0832 
     15 C15        30.8124    1.0333   -1.9091 C.3       12 UNK         0.0240 
     16 S16        30.2113    1.7792   -3.4578 S.3       12 UNK        -0.2522 
     17 C17        28.6659    0.8587   -3.7421 C.3       12 UNK        -0.0967 
     18 CA         28.1316    1.0523   -5.1850 C.3       5 UNK         0.0660 
     19 N          27.4507   -0.1432   -5.6821 N.am      5 UNK        -0.4015 
     20 C          27.1474   -0.3772   -6.9646 C.2       4 UNK         0.4946 
     21 O          27.4768    0.3654   -7.8895 O.2       4 UNK        -0.5353 
     22 CA         26.3640   -1.6589   -7.2748 C.3       4 UNK         0.0277 
     23 CB         27.3248   -2.8449   -7.4550 C.3       4 UNK        -0.1981 
     24 N          25.3703   -1.9582   -6.2412 N.am      4 UNK        -0.4209 
     25 C          24.2579   -1.2356   -6.0431 C.2       3 UNK         0.4942 
     26 O          23.9233   -0.2868   -6.7520 O.2       3 UNK        -0.5208 
     27 CA         23.4021   -1.6021   -4.8200 C.3       3 UNK         0.0250 
     28 CB         22.4891   -2.7987   -5.1301 C.3       3 UNK        -0.1990 
     29 N          24.2147   -1.8872   -3.6340 N.am      3 UNK        -0.4232 
     30 C          24.9457   -0.9659   -2.9878 C.2       2 UNK         0.4993 
     31 O          24.9881    0.2204   -3.3084 O.2       2 UNK        -0.5286 
     32 CA         25.8268   -1.4486   -1.8236 C.3       2 UNK         0.0209 
     33 CB         25.0357   -1.4352   -0.5064 C.3       2 UNK        -0.1931 
     34 N          26.4154   -2.7750   -2.0302 N.am      2 UNK        -0.4546 
     35 C          27.1882   -3.1152   -3.0706 C.2       1 UNK         0.5154 
     36 O          27.4769   -2.3469   -3.9894 O.2       1 UNK        -0.5181 
     37 C          27.2623    2.3144   -5.3585 C.2       5 UNK         0.5014 
     38 O          27.7639    3.3256   -5.8501 O.2       5 UNK        -0.5248 
     39 N          25.9610    2.2172   -5.0433 N.am      6 UNK        -0.4434 
     40 CA         24.9575    3.2566   -5.3037 C.3       6 UNK         0.0363 
     41 CB         23.6191    2.8537   -4.6651 C.3       6 UNK        -0.1936 
     42 C          24.7681    3.5601   -6.8019 C.2       6 UNK         0.5081 
     43 O          24.5418    4.7157   -7.1603 O.2       6 UNK        -0.5248 
     44 N          24.9021    2.5321   -7.6515 N.am      7 UNK        -0.4718 
     45 CA         24.8995    2.6431   -9.1142 C.3       7 UNK         0.0273 
     46 CB         24.5409    1.2738   -9.7163 C.3       7 UNK        -0.1935 
     47 C          26.2277    3.1651   -9.7027 C.2       7 UNK         0.5018 
     48 O          26.3028    3.3475  -10.9183 O.2       7 UNK        -0.5186 
     49 N          27.2453    3.3796   -8.8534 N.am      8 UNK        -0.4240 
     50 CA         28.6038    3.8431   -9.1645 C.3       8 UNK         0.0235 
     51 CB         28.5866    5.2449   -9.8115 C.3       8 UNK        -0.2000 
     52 C          29.4581    2.8314   -9.9553 C.2       8 UNK         0.4941 
     53 O          30.4869    3.2191  -10.5120 O.2       8 UNK        -0.5273 
     54 N          29.0533    1.5544   -9.9651 N.am      9 UNK        -0.4262 
     55 CA         29.8464    0.4367  -10.4814 C.3       9 UNK         0.0264 
     56 CB         28.9073   -0.6736  -10.9820 C.3       9 UNK        -0.1955 
     57 C          30.7939   -0.0922   -9.3934 C.2       9 UNK         0.5031 
     58 O          31.9710   -0.3319   -9.6700 O.2       9 UNK        -0.5390 
     59 N          30.2578   -0.2231   -8.1704 N.am      10 UNK        -0.4204 
     60 CA         30.9310   -0.6237   -6.9321 C.3       10 UNK         0.0237 
     61 CB         31.8292    0.5383   -6.4417 C.3       10 UNK        -0.1985 
     62 C          31.6649   -1.9724   -7.0587 C.2       10 UNK         0.4970 
     63 O          31.1498   -2.9030   -7.6807 O.2       10 UNK        -0.4914 
     64 N          32.8550   -2.0360   -6.4630 N.am      11 UNK        -0.4285 
     65 CA         33.8566   -3.0991   -6.5765 C.3       11 UNK         0.1007 
     66 C          34.5890   -3.1669   -7.9527 C.2       11 UNK         0.5703 
     67 N          34.2963   -2.3099   -8.9254 N.am      11 UNK        -0.7361 
     68 O          35.4366   -4.0343   -8.1510 O.2       11 UNK        -0.4986 
     69 C69        34.8463   -3.0403   -5.3761 C.3       12 UNK        -0.0947 
     70 S70        35.3923   -1.3412   -4.9535 S.3       12 UNK        -0.2240 
     71 C71        35.1606   -1.2712   -3.1466 C.3       12 UNK         0.0194 
     72 H72        25.3318   -5.5351   -6.8313 H         1 UNK         0.0906 
     73 H73        26.9554   -6.2137   -6.6945 H         1 UNK         0.0906 
     74 H74        25.5697   -7.0987   -6.0498 H         1 UNK         0.0906 
     75 H75        28.1736   -5.5127   -4.9347 H         1 UNK         0.3140 
     76 H76        27.2155   -5.1350   -2.3257 H         1 UNK         0.1085 
     77 H77        29.6403   -5.5874   -3.0532 H         1 UNK         0.0836 
     78 H78        29.7793   -3.8986   -3.4763 H         1 UNK         0.0836 
     79 H79        31.8623   -4.8062   -1.7252 H         1 UNK         0.0731 
     80 H80        31.8162   -4.0663   -0.1454 H         1 UNK         0.0731 
     81 H81        33.8021   -3.4436   -2.2534 H         1 UNK         0.1312 
     82 H82        33.3197    0.7552   -2.9499 H         1 UNK         0.1406 
     83 H83        30.1077   -1.5164   -1.2469 H         1 UNK         0.1631 
     84 H84        31.4516    1.7611   -1.4073 H         1 UNK         0.0717 
     85 H85        29.9690    0.8668   -1.2371 H         1 UNK         0.0717 
     86 H86        28.8964   -0.1925   -3.5640 H         1 UNK         0.0934 
     87 H87        27.9224    1.1361   -2.9923 H         1 UNK         0.0934 
     88 H88        28.9888    1.1981   -5.8423 H         1 UNK         0.0739 
     89 H89        27.2442   -0.8696   -4.9984 H         1 UNK         0.3093 
     90 H90        25.8380   -1.5037   -8.2189 H         1 UNK         0.0818 
     91 H91        26.7941   -3.7349   -7.7902 H         1 UNK         0.0819 
     92 H92        28.0834   -2.6244   -8.2075 H         1 UNK         0.0819 
     93 H93        27.8518   -3.0904   -6.5327 H         1 UNK         0.0819 
     94 H94        25.5978   -2.6854   -5.5776 H         1 UNK         0.3041 
     95 H95        22.7678   -0.7424   -4.5923 H         1 UNK         0.0784 
     96 H96        21.8525   -2.5890   -5.9909 H         1 UNK         0.0793 
     97 H97        23.0605   -3.6987   -5.3600 H         1 UNK         0.0793 
     98 H98        21.8321   -3.0245   -4.2900 H         1 UNK         0.0793 
     99 H99        24.2716   -2.8521   -3.3350 H         1 UNK         0.3024 
    100 H100       26.6521   -0.7393   -1.7321 H         1 UNK         0.1171 
    101 H101       25.6762   -1.6700    0.3441 H         1 UNK         0.0786 
    102 H102       24.6034   -0.4507   -0.3211 H         1 UNK         0.0786 
    103 H103       24.2156   -2.1542   -0.5192 H         1 UNK         0.0786 
    104 H104       26.2264   -3.4673   -1.3192 H         1 UNK         0.2977 
    105 H105       25.6245    1.3744   -4.5787 H         1 UNK         0.3127 
    106 H106       25.3021    4.1750   -4.8239 H         1 UNK         0.0770 
    107 H107       23.7168    2.7269   -3.5868 H         1 UNK         0.0814 
    108 H108       23.2418    1.9176   -5.0787 H         1 UNK         0.0814 
    109 H109       22.8586    3.6171   -4.8343 H         1 UNK         0.0814 
    110 H110       25.0232    1.6015   -7.2694 H         1 UNK         0.2983 
    111 H111       24.1223    3.3537   -9.4040 H         1 UNK         0.0947 
    112 H112       25.3030    0.5259   -9.4992 H         1 UNK         0.0806 
    113 H113       24.4459    1.3347  -10.8012 H         1 UNK         0.0806 
    114 H114       23.5904    0.9058   -9.3295 H         1 UNK         0.0806 
    115 H115       27.0829    3.1846   -7.8718 H         1 UNK         0.3000 
    116 H116       29.1007    3.9428   -8.1984 H         1 UNK         0.0850 
    117 H117       27.9881    5.9440   -9.2273 H         1 UNK         0.0810 
    118 H118       28.1837    5.2205  -10.8242 H         1 UNK         0.0810 
    119 H119       29.5936    5.6588   -9.8752 H         1 UNK         0.0810 
    120 H120       28.2251    1.3135   -9.4280 H         1 UNK         0.3040 
    121 H121       30.4519    0.7748  -11.3252 H         1 UNK         0.0766 
    122 H122       29.4767   -1.5244  -11.3586 H         1 UNK         0.0812 
    123 H123       28.2777   -0.3177  -11.7977 H         1 UNK         0.0812 
    124 H124       28.2514   -1.0426  -10.1930 H         1 UNK         0.0812 
    125 H125       29.2674   -0.0105   -8.0814 H         1 UNK         0.3205 
    126 H126       30.1550   -0.7902   -6.1859 H         1 UNK         0.0754 
    127 H127       32.1918    0.3651   -5.4281 H         1 UNK         0.0769 
    128 H128       31.2812    1.4800   -6.4194 H         1 UNK         0.0769 
    129 H129       32.6952    0.6862   -7.0886 H         1 UNK         0.0769 
    130 H130       33.1831   -1.2181   -5.9701 H         1 UNK         0.2981 
    131 H131       33.3205   -4.0469   -6.5035 H         1 UNK         0.0541 
    132 H132       34.7850   -2.3860   -9.8028 H         1 UNK         0.3459 
    133 H133       33.5618   -1.6217   -8.8237 H         1 UNK         0.3459 
    134 H134       34.3614   -3.4841   -4.5093 H         1 UNK         0.0612 
    135 H135       35.7292   -3.6584   -5.5474 H         1 UNK         0.0612 
    136 H136       35.5986   -0.3412   -2.7815 H         1 UNK         0.0624 
    137 H137       35.7408   -2.0729   -2.6870 H         1 UNK         0.0624 
@<TRIPOS>BOND
     1    1    2 1    
     2    1   72 1    
     3    1   73 1    
     4    1   74 1    
     5    2    3 2    
     6    2    4 am   BACKBONE|DICT|INTERRES
     7    4    5 1    
     8    4   75 1    
     9    5    6 1    
    10    5   35 1    
    11    5   76 1    
    12    6    7 1    
    13    6   77 1    
    14    6   78 1    
    15    7    8 1    
    16    8    9 1    
    17    8   79 1    
    18    8   80 1    
    19    9   10 ar   
    20    9   14 ar   
    21   10   11 ar   
    22   10   81 1    
    23   11   12 ar   
    24   11   71 1    
    25   12   13 ar   
    26   12   82 1    
    27   13   14 ar   
    28   13   15 1    
    29   14   83 1    
    30   15   16 1    
    31   15   84 1    
    32   15   85 1    
    33   16   17 1    
    34   17   18 1    
    35   17   86 1    
    36   17   87 1    
    37   18   19 1    
    38   18   37 1    
    39   18   88 1    
    40   19   20 am   BACKBONE|DICT|INTERRES
    41   19   89 1    
    42   20   21 2    
    43   20   22 1    
    44   22   23 1    
    45   22   24 1    
    46   22   90 1    
    47   23   91 1    
    48   23   92 1    
    49   23   93 1    
    50   24   25 am   BACKBONE|DICT|INTERRES
    51   24   94 1    
    52   25   26 2    
    53   25   27 1    
    54   27   28 1    
    55   27   29 1    
    56   27   95 1    
    57   28   96 1    
    58   28   97 1    
    59   28   98 1    
    60   29   30 am   BACKBONE|DICT|INTERRES
    61   29   99 1    
    62   30   31 2    
    63   30   32 1    
    64   32   33 1    
    65   32   34 1    
    66   32  100 1    
    67   33  101 1    
    68   33  102 1    
    69   33  103 1    
    70   34   35 am   BACKBONE|DICT|INTERRES
    71   34  104 1    
    72   35   36 2    
    73   37   38 2    
    74   37   39 am   BACKBONE|DICT|INTERRES
    75   39   40 1    
    76   39  105 1    
    77   40   41 1    
    78   40   42 1    
    79   40  106 1    
    80   41  107 1    
    81   41  108 1    
    82   41  109 1    
    83   42   43 2    
    84   42   44 am   BACKBONE|DICT|INTERRES
    85   44   45 1    
    86   44  110 1    
    87   45   46 1    
    88   45   47 1    
    89   45  111 1    
    90   46  112 1    
    91   46  113 1    
    92   46  114 1    
    93   47   48 2    
    94   47   49 am   BACKBONE|DICT|INTERRES
    95   49   50 1    
    96   49  115 1    
    97   50   51 1    
    98   50   52 1    
    99   50  116 1    
   100   51  117 1    
   101   51  118 1    
   102   51  119 1    
   103   52   53 2    
   104   52   54 am   BACKBONE|DICT|INTERRES
   105   54   55 1    
   106   54  120 1    
   107   55   56 1    
   108   55   57 1    
   109   55  121 1    
   110   56  122 1    
   111   56  123 1    
   112   56  124 1    
   113   57   58 2    
   114   57   59 am   BACKBONE|DICT|INTERRES
   115   59   60 1    
   116   59  125 1    
   117   60   61 1    
   118   60   62 1    
   119   60  126 1    
   120   61  127 1    
   121   61  128 1    
   122   61  129 1    
   123   62   63 2    
   124   62   64 am   BACKBONE|DICT|INTERRES
   125   64   65 1    
   126   64  130 1    
   127   65   66 1    
   128   65   69 1    
   129   65  131 1    
   130   66   67 am   BACKBONE|DICT|INTERRES
   131   66   68 2    
   132   67  132 1    
   133   67  133 1    
   134   69   70 1    
   135   69  134 1    
   136   69  135 1    
   137   70   71 1    
   138   71  136 1    
   139   71  137 1    
@<TRIPOS>SUBSTRUCTURE
     1 UNK         1 GROUP             0       ****    0 ROOT    
