@<TRIPOS>MOLECULE
3R137
137   139    1
SMALL
USER_CHARGES


@<TRIPOS>ATOM
      1 CA         24.0439   -4.4954    0.1764 C.3       0 UNK        -0.2020 
      2 C          25.4172   -3.9219    0.4916 C.2       0 UNK         0.4855 
      3 O          25.5964   -3.3060    1.5423 O.2       0 UNK        -0.5197 
      4 N          26.3881   -4.1192   -0.4108 N.am      1 UNK        -0.4892 
      5 CA         27.7605   -3.6048   -0.2906 C.3       1 UNK         0.0835 
      6 C6         28.7141   -4.3466   -1.2588 C.3       12 UNK        -0.0855 
      7 S7         30.4389   -4.3762   -0.6651 S.3       12 UNK        -0.2931 
      8 C8         31.2359   -5.4008   -1.9411 C.3       12 UNK         0.0378 
      9 C9         31.2538   -4.7000   -3.2912 C.ar      12 UNK        -0.0802 
     10 C10        32.2705   -3.7912   -3.5995 C.ar      12 UNK        -0.0944 
     11 C11        32.2931   -3.1442   -4.8385 C.ar      12 UNK        -0.0787 
     12 C12        31.2731   -3.4006   -5.7602 C.ar      12 UNK        -0.0862 
     13 C13        30.2529   -4.3134   -5.4715 C.ar      12 UNK        -0.0733 
     14 C14        30.2603   -4.9706   -4.2371 C.ar      12 UNK        -0.0832 
     15 C15        29.2003   -4.6306   -6.5325 C.3       12 UNK         0.0240 
     16 S16        27.5051   -4.8641   -5.8891 S.3       12 UNK        -0.2522 
     17 C17        27.0467   -3.1887   -5.3379 C.3       12 UNK        -0.0967 
     18 CA         26.6707   -2.2505   -6.5223 C.3       5 UNK         0.0660 
     19 N          25.3579   -1.6143   -6.3564 N.am      5 UNK        -0.4015 
     20 C          24.7277   -0.9356   -7.3294 C.2       4 UNK         0.4946 
     21 O          25.1689   -0.8069   -8.4709 O.2       4 UNK        -0.5353 
     22 CA         23.4007   -0.2453   -6.9741 C.3       4 UNK         0.0277 
     23 CB         22.2206   -1.2052   -7.1925 C.3       4 UNK        -0.1981 
     24 N          23.3513    0.2894   -5.6124 N.am      4 UNK        -0.4209 
     25 C          24.1929    1.1998   -5.1031 C.2       3 UNK         0.4942 
     26 O          25.1333    1.6902   -5.7287 O.2       3 UNK        -0.5208 
     27 CA         23.9734    1.6219   -3.6393 C.3       3 UNK         0.0250 
     28 CB         22.6582    1.0947   -3.0192 C.3       3 UNK        -0.1990 
     29 N          25.1065    1.2648   -2.7781 N.am      3 UNK        -0.4232 
     30 C          25.6537    0.0506   -2.6169 C.2       2 UNK         0.4993 
     31 O          25.3557   -0.9401   -3.2941 O.2       2 UNK        -0.5286 
     32 CA         26.6944   -0.0847   -1.4931 C.3       2 UNK         0.0209 
     33 CB         26.2647    0.6586   -0.2058 C.3       2 UNK        -0.1931 
     34 N          26.8747   -1.5075   -1.2203 N.am      2 UNK        -0.4546 
     35 C          27.8364   -2.0707   -0.4791 C.2       1 UNK         0.5154 
     36 O          28.7412   -1.4309    0.0593 O.2       1 UNK        -0.5181 
     37 C          27.7604   -1.1893   -6.7510 C.2       5 UNK         0.5014 
     38 O          28.5525   -1.3076   -7.6881 O.2       5 UNK        -0.5248 
     39 N          27.7479   -0.1524   -5.9012 N.am      6 UNK        -0.4434 
     40 CA         28.6755    0.9713   -5.9696 C.3       6 UNK         0.0363 
     41 CB         28.5635    1.8405   -4.7083 C.3       6 UNK        -0.1936 
     42 C          28.5001    1.8034   -7.2433 C.2       6 UNK         0.5081 
     43 O          29.5033    2.1528   -7.8627 O.2       6 UNK        -0.5248 
     44 N          27.2444    2.0632   -7.6290 N.am      7 UNK        -0.4718 
     45 CA         26.8803    2.7670   -8.8588 C.3       7 UNK         0.0273 
     46 CB         25.3678    3.0385   -8.8664 C.3       7 UNK        -0.1935 
     47 C          27.3045    2.0169  -10.1325 C.2       7 UNK         0.5018 
     48 O          27.8185    2.6503  -11.0549 O.2       7 UNK        -0.5186 
     49 N          27.0939    0.6923  -10.1614 N.am      8 UNK        -0.4240 
     50 CA         27.4571   -0.1705  -11.2873 C.3       8 UNK         0.0235 
     51 CB         26.7832   -1.5439  -11.1341 C.3       8 UNK        -0.2000 
     52 C          28.9753   -0.3332  -11.4531 C.2       8 UNK         0.4941 
     53 O          29.4759   -0.2104  -12.5718 O.2       8 UNK        -0.5273 
     54 N          29.6772   -0.6225  -10.3492 N.am      9 UNK        -0.4262 
     55 CA         31.1136   -0.9123  -10.3559 C.3       9 UNK         0.0264 
     56 CB         31.4371   -1.8002   -9.1481 C.3       9 UNK        -0.1955 
     57 C          32.0091    0.3368  -10.3259 C.2       9 UNK         0.5031 
     58 O          33.2038    0.2060  -10.5959 O.2       9 UNK        -0.5390 
     59 N          31.4451    1.4954   -9.9510 N.am      10 UNK        -0.4204 
     60 CA         32.1416    2.7339   -9.5766 C.3       10 UNK         0.0237 
     61 CB         32.9314    3.3327  -10.7610 C.3       10 UNK        -0.1985 
     62 C          32.9898    2.5289   -8.3039 C.2       10 UNK         0.4970 
     63 O          34.1511    2.9389   -8.2567 O.2       10 UNK        -0.4914 
     64 N          32.3858    1.8737   -7.3017 N.am      11 UNK        -0.4285 
     65 CA         33.0027    1.5661   -5.9995 C.3       11 UNK         0.1007 
     66 C          33.1262    2.7961   -5.0505 C.2       11 UNK         0.5703 
     67 N          32.4122    3.8907   -5.2897 N.am      11 UNK        -0.7361 
     68 O          33.8924    2.7645   -4.0910 O.2       11 UNK        -0.4986 
     69 C69        32.2956    0.3649   -5.3056 C.3       12 UNK        -0.0947 
     70 S70        33.4201   -0.6484   -4.2893 S.3       12 UNK        -0.2240 
     71 C71        33.4564   -2.2260   -5.1991 C.3       12 UNK         0.0194 
     72 H72        23.3044   -3.6960    0.1364 H         1 UNK         0.0906 
     73 H73        24.0285   -5.0193   -0.7791 H         1 UNK         0.0906 
     74 H74        23.7439   -5.1985    0.9530 H         1 UNK         0.0906 
     75 H75        26.1833   -4.6431   -1.2503 H         1 UNK         0.3140 
     76 H76        28.0837   -3.8104    0.7329 H         1 UNK         0.1085 
     77 H77        28.4027   -5.3868   -1.3701 H         1 UNK         0.0836 
     78 H78        28.6697   -3.9099   -2.2581 H         1 UNK         0.0836 
     79 H79        32.2575   -5.6229   -1.6288 H         1 UNK         0.0731 
     80 H80        30.7243   -6.3621   -2.0112 H         1 UNK         0.0731 
     81 H81        33.0517   -3.5937   -2.8780 H         1 UNK         0.1312 
     82 H82        31.2915   -2.9144   -6.7212 H         1 UNK         0.1406 
     83 H83        29.4886   -5.6930   -4.0088 H         1 UNK         0.1631 
     84 H84        29.4998   -5.5498   -7.0373 H         1 UNK         0.0717 
     85 H85        29.1819   -3.8590   -7.3025 H         1 UNK         0.0717 
     86 H86        26.1985   -3.3092   -4.6620 H         1 UNK         0.0934 
     87 H87        27.8465   -2.7900   -4.7089 H         1 UNK         0.0934 
     88 H88        26.6094   -2.8388   -7.4409 H         1 UNK         0.0739 
     89 H89        24.9617   -1.6166   -5.4242 H         1 UNK         0.3093 
     90 H90        23.2815    0.5985   -7.6564 H         1 UNK         0.0818 
     91 H91        21.2651   -0.7006   -7.0474 H         1 UNK         0.0819 
     92 H92        22.2235   -1.6009   -8.2094 H         1 UNK         0.0819 
     93 H93        22.2590   -2.0566   -6.5118 H         1 UNK         0.0819 
     94 H94        22.6237   -0.0686   -5.0109 H         1 UNK         0.3041 
     95 H95        23.9201    2.7117   -3.6484 H         1 UNK         0.0784 
     96 H96        21.7903    1.3996   -3.6058 H         1 UNK         0.0793 
     97 H97        22.6458    0.0070   -2.9367 H         1 UNK         0.0793 
     98 H98        22.5151    1.4966   -2.0160 H         1 UNK         0.0793 
     99 H99        25.4577    2.0176   -2.2032 H         1 UNK         0.3024 
    100 H100       27.6399    0.3235   -1.8547 H         1 UNK         0.1171 
    101 H101       25.2888    0.3195    0.1449 H         1 UNK         0.0786 
    102 H102       26.2046    1.7359   -0.3613 H         1 UNK         0.0786 
    103 H103       26.9754    0.5070    0.6062 H         1 UNK         0.0786 
    104 H104       26.1897   -2.0995   -1.6741 H         1 UNK         0.2977 
    105 H105       27.0137   -0.1032   -5.2092 H         1 UNK         0.3127 
    106 H106       29.6757    0.5471   -6.0074 H         1 UNK         0.0770 
    107 H107       28.8105    1.2706   -3.8132 H         1 UNK         0.0814 
    108 H108       27.5607    2.2508   -4.5847 H         1 UNK         0.0814 
    109 H109       29.2563    2.6821   -4.7538 H         1 UNK         0.0814 
    110 H110       26.4809    1.7792   -7.0179 H         1 UNK         0.2983 
    111 H111       27.4001    3.7276   -8.8541 H         1 UNK         0.0947 
    112 H112       25.0759    3.5997   -9.7551 H         1 UNK         0.0806 
    113 H113       25.0654    3.6240   -7.9979 H         1 UNK         0.0806 
    114 H114       24.7929    2.1121   -8.8610 H         1 UNK         0.0806 
    115 H115       26.6189    0.2480   -9.3805 H         1 UNK         0.3000 
    116 H116       27.0735    0.2908  -12.2001 H         1 UNK         0.0850 
    117 H117       27.0472   -2.2054  -11.9603 H         1 UNK         0.0810 
    118 H118       25.6970   -1.4519  -11.1279 H         1 UNK         0.0810 
    119 H119       27.0805   -2.0395  -10.2087 H         1 UNK         0.0810 
    120 H120       29.1896   -0.7385   -9.4632 H         1 UNK         0.3040 
    121 H121       31.3590   -1.4717  -11.2615 H         1 UNK         0.0766 
    122 H122       32.4853   -2.1026   -9.1480 H         1 UNK         0.0812 
    123 H123       30.8344   -2.7086   -9.1486 H         1 UNK         0.0812 
    124 H124       31.2492   -1.2661   -8.2168 H         1 UNK         0.0812 
    125 H125       30.4604    1.4790   -9.7114 H         1 UNK         0.3205 
    126 H126       31.3647    3.4529   -9.3128 H         1 UNK         0.0754 
    127 H127       33.3194    4.3200  -10.5075 H         1 UNK         0.0769 
    128 H128       32.2979    3.4493  -11.6402 H         1 UNK         0.0769 
    129 H129       33.7847    2.7147  -11.0413 H         1 UNK         0.0769 
    130 H130       31.4017    1.6567   -7.4099 H         1 UNK         0.2981 
    131 H131       34.0267    1.2587   -6.2210 H         1 UNK         0.0541 
    132 H132       31.7873    3.9343   -6.0781 H         1 UNK         0.3459 
    133 H133       32.5065    4.6835   -4.6749 H         1 UNK         0.3459 
    134 H134       31.8409   -0.2898   -6.0494 H         1 UNK         0.0612 
    135 H135       31.4801    0.7039   -4.6651 H         1 UNK         0.0612 
    136 H136       33.4879   -2.0315   -6.2724 H         1 UNK         0.0624 
    137 H137       34.3904   -2.7365   -4.9603 H         1 UNK         0.0624 
@<TRIPOS>BOND
     1    1    2 1    
     2    1   72 1    
     3    1   73 1    
     4    1   74 1    
     5    2    3 2    
     6    2    4 am   BACKBONE|DICT|INTERRES
     7    4    5 1    
     8    4   75 1    
     9    5    6 1    
    10    5   35 1    
    11    5   76 1    
    12    6    7 1    
    13    6   77 1    
    14    6   78 1    
    15    7    8 1    
    16    8    9 1    
    17    8   79 1    
    18    8   80 1    
    19    9   10 ar   
    20    9   14 ar   
    21   10   11 ar   
    22   10   81 1    
    23   11   12 ar   
    24   11   71 1    
    25   12   13 ar   
    26   12   82 1    
    27   13   14 ar   
    28   13   15 1    
    29   14   83 1    
    30   15   16 1    
    31   15   84 1    
    32   15   85 1    
    33   16   17 1    
    34   17   18 1    
    35   17   86 1    
    36   17   87 1    
    37   18   19 1    
    38   18   37 1    
    39   18   88 1    
    40   19   20 am   BACKBONE|DICT|INTERRES
    41   19   89 1    
    42   20   21 2    
    43   20   22 1    
    44   22   23 1    
    45   22   24 1    
    46   22   90 1    
    47   23   91 1    
    48   23   92 1    
    49   23   93 1    
    50   24   25 am   BACKBONE|DICT|INTERRES
    51   24   94 1    
    52   25   26 2    
    53   25   27 1    
    54   27   28 1    
    55   27   29 1    
    56   27   95 1    
    57   28   96 1    
    58   28   97 1    
    59   28   98 1    
    60   29   30 am   BACKBONE|DICT|INTERRES
    61   29   99 1    
    62   30   31 2    
    63   30   32 1    
    64   32   33 1    
    65   32   34 1    
    66   32  100 1    
    67   33  101 1    
    68   33  102 1    
    69   33  103 1    
    70   34   35 am   BACKBONE|DICT|INTERRES
    71   34  104 1    
    72   35   36 2    
    73   37   38 2    
    74   37   39 am   BACKBONE|DICT|INTERRES
    75   39   40 1    
    76   39  105 1    
    77   40   41 1    
    78   40   42 1    
    79   40  106 1    
    80   41  107 1    
    81   41  108 1    
    82   41  109 1    
    83   42   43 2    
    84   42   44 am   BACKBONE|DICT|INTERRES
    85   44   45 1    
    86   44  110 1    
    87   45   46 1    
    88   45   47 1    
    89   45  111 1    
    90   46  112 1    
    91   46  113 1    
    92   46  114 1    
    93   47   48 2    
    94   47   49 am   BACKBONE|DICT|INTERRES
    95   49   50 1    
    96   49  115 1    
    97   50   51 1    
    98   50   52 1    
    99   50  116 1    
   100   51  117 1    
   101   51  118 1    
   102   51  119 1    
   103   52   53 2    
   104   52   54 am   BACKBONE|DICT|INTERRES
   105   54   55 1    
   106   54  120 1    
   107   55   56 1    
   108   55   57 1    
   109   55  121 1    
   110   56  122 1    
   111   56  123 1    
   112   56  124 1    
   113   57   58 2    
   114   57   59 am   BACKBONE|DICT|INTERRES
   115   59   60 1    
   116   59  125 1    
   117   60   61 1    
   118   60   62 1    
   119   60  126 1    
   120   61  127 1    
   121   61  128 1    
   122   61  129 1    
   123   62   63 2    
   124   62   64 am   BACKBONE|DICT|INTERRES
   125   64   65 1    
   126   64  130 1    
   127   65   66 1    
   128   65   69 1    
   129   65  131 1    
   130   66   67 am   BACKBONE|DICT|INTERRES
   131   66   68 2    
   132   67  132 1    
   133   67  133 1    
   134   69   70 1    
   135   69  134 1    
   136   69  135 1    
   137   70   71 1    
   138   71  136 1    
   139   71  137 1    
@<TRIPOS>SUBSTRUCTURE
     1 UNK         1 GROUP             0       ****    0 ROOT    
