@<TRIPOS>MOLECULE
3R137
137   139    1
SMALL
USER_CHARGES


@<TRIPOS>ATOM
      1 CA         24.3311   -5.7192   -3.4329 C.3       0 UNK        -0.2020 
      2 C          25.0077   -4.7159   -2.5116 C.2       0 UNK         0.4855 
      3 O          24.3301   -3.8886   -1.9003 O.2       0 UNK        -0.5197 
      4 N          26.3412   -4.7847   -2.4139 N.am      1 UNK        -0.4892 
      5 CA         27.2116   -3.9101   -1.6192 C.3       1 UNK         0.0835 
      6 C6         28.7008   -4.3576   -1.6727 C.3       12 UNK        -0.0855 
      7 S7         29.2772   -4.9370   -3.3116 S.3       12 UNK        -0.2931 
      8 C8         31.0918   -4.8375   -3.1148 C.3       12 UNK         0.0378 
      9 C9         31.7162   -3.4511   -3.2944 C.ar      12 UNK        -0.0802 
     10 C10        33.1071   -3.3350   -3.1978 C.ar      12 UNK        -0.0944 
     11 C11        33.7402   -2.1038   -3.3973 C.ar      12 UNK        -0.0787 
     12 C12        32.9715   -0.9680   -3.6627 C.ar      12 UNK        -0.0862 
     13 C13        31.5845   -1.0686   -3.7744 C.ar      12 UNK        -0.0733 
     14 C14        30.9639   -2.3065   -3.5895 C.ar      12 UNK        -0.0832 
     15 C15        30.7539    0.1372   -4.1709 C.3       12 UNK         0.0240 
     16 S16        29.6111    0.6356   -2.8412 S.3       12 UNK        -0.2522 
     17 C17        28.5565    1.8999   -3.6365 C.3       12 UNK        -0.0967 
     18 CA         28.1225    1.5857   -5.0901 C.3       5 UNK         0.0660 
     19 N          27.5278    0.2520   -5.2472 N.am      5 UNK        -0.4015 
     20 C          27.2768   -0.3200   -6.4338 C.2       4 UNK         0.4946 
     21 O          27.5716    0.1960   -7.5103 O.2       4 UNK        -0.5353 
     22 CA         26.5171   -1.6541   -6.4335 C.3       4 UNK         0.0277 
     23 CB         27.4844   -2.8423   -6.3092 C.3       4 UNK        -0.1981 
     24 N          25.5078   -1.6941   -5.3732 N.am      4 UNK        -0.4209 
     25 C          24.3667   -0.9874   -5.4108 C.2       3 UNK         0.4942 
     26 O          24.0214   -0.3082   -6.3767 O.2       3 UNK        -0.5208 
     27 CA         23.4909   -0.9804   -4.1460 C.3       3 UNK         0.0250 
     28 CB         22.4834   -2.1391   -4.1715 C.3       3 UNK        -0.1990 
     29 N          24.2822   -1.0229   -2.9133 N.am      3 UNK        -0.4232 
     30 C          25.0836   -0.0220   -2.5151 C.2       2 UNK         0.4993 
     31 O          25.1696    1.0523   -3.1101 O.2       2 UNK        -0.5286 
     32 CA         25.9831   -0.2661   -1.2893 C.3       2 UNK         0.0209 
     33 CB         25.3076    0.2640   -0.0152 C.3       2 UNK        -0.1931 
     34 N          26.3641   -1.6686   -1.0924 N.am      2 UNK        -0.4546 
     35 C          27.0145   -2.4247   -1.9890 C.2       1 UNK         0.5154 
     36 O          27.3795   -2.0069   -3.0888 O.2       1 UNK        -0.5181 
     37 C          27.2162    2.6983   -5.6551 C.2       5 UNK         0.5014 
     38 O          27.7290    3.6481   -6.2464 O.2       5 UNK        -0.5248 
     39 N          25.8940    2.5515   -5.4994 N.am      6 UNK        -0.4434 
     40 CA         24.8969    3.4224   -6.1194 C.3       6 UNK         0.0363 
     41 CB         23.5278    3.1899   -5.4596 C.3       6 UNK        -0.1936 
     42 C          24.8118    3.2327   -7.6454 C.2       6 UNK         0.5081 
     43 O          24.7891    4.2252   -8.3739 O.2       6 UNK        -0.5248 
     44 N          24.7362    1.9740   -8.1006 N.am      7 UNK        -0.4718 
     45 CA         24.4935    1.6257   -9.5027 C.3       7 UNK         0.0273 
     46 CB         23.9086    0.2058   -9.5831 C.3       7 UNK        -0.1935 
     47 C          25.7278    1.7439  -10.4117 C.2       7 UNK         0.5018 
     48 O          25.6135    2.3086  -11.5008 O.2       7 UNK        -0.5186 
     49 N          26.8584    1.1678   -9.9849 N.am      8 UNK        -0.4240 
     50 CA         28.0529    0.9601  -10.8105 C.3       8 UNK         0.0235 
     51 CB         28.3311   -0.5507  -10.8982 C.3       8 UNK        -0.2000 
     52 C          29.2977    1.6856  -10.2807 C.2       8 UNK         0.4941 
     53 O          30.2368    1.8782  -11.0542 O.2       8 UNK        -0.5273 
     54 N          29.3190    2.0431   -8.9883 N.am      9 UNK        -0.4262 
     55 CA         30.3917    2.7276   -8.2450 C.3       9 UNK         0.0264 
     56 CB         30.7334    4.0993   -8.8600 C.3       9 UNK        -0.1955 
     57 C          31.6609    1.8856   -8.0144 C.2       9 UNK         0.5031 
     58 O          32.2214    1.9401   -6.9190 O.2       9 UNK        -0.5390 
     59 N          32.0940    1.1323   -9.0310 N.am      10 UNK        -0.4204 
     60 CA         33.2256    0.2055   -8.9874 C.3       10 UNK         0.0237 
     61 CB         33.5545   -0.2337  -10.4242 C.3       10 UNK        -0.1985 
     62 C          32.9476   -1.0218   -8.1006 C.2       10 UNK         0.4970 
     63 O          31.7881   -1.3932   -7.9040 O.2       10 UNK        -0.4914 
     64 N          34.0291   -1.6504   -7.6234 N.am      11 UNK        -0.4285 
     65 CA         33.9967   -2.8560   -6.7769 C.3       11 UNK         0.1007 
     66 C          33.5518   -4.1613   -7.5006 C.2       11 UNK         0.5703 
     67 N          33.4559   -4.1926   -8.8249 N.am      11 UNK        -0.7361 
     68 O          33.2881   -5.1669   -6.8458 O.2       11 UNK        -0.4986 
     69 C69        35.3408   -3.0779   -6.0253 C.3       12 UNK        -0.0947 
     70 S70        35.8998   -1.6293   -5.0619 S.3       12 UNK        -0.2240 
     71 C71        35.2581   -2.0080   -3.3970 C.3       12 UNK         0.0194 
     72 H72        24.9714   -6.5785   -3.6317 H         1 UNK         0.0906 
     73 H73        24.0833   -5.2519   -4.3852 H         1 UNK         0.0906 
     74 H74        23.4096   -6.0850   -2.9809 H         1 UNK         0.0906 
     75 H75        26.8447   -5.4562   -2.9780 H         1 UNK         0.3140 
     76 H76        26.8902   -4.0248   -0.5817 H         1 UNK         0.1085 
     77 H77        28.8442   -5.1872   -0.9786 H         1 UNK         0.0836 
     78 H78        29.3600   -3.5648   -1.3124 H         1 UNK         0.0836 
     79 H79        31.3650   -5.2327   -2.1352 H         1 UNK         0.0731 
     80 H80        31.5392   -5.5069   -3.8512 H         1 UNK         0.0731 
     81 H81        33.7027   -4.2161   -3.0002 H         1 UNK         0.1312 
     82 H82        33.4604   -0.0187   -3.8352 H         1 UNK         0.1406 
     83 H83        29.8901   -2.3606   -3.6938 H         1 UNK         0.1631 
     84 H84        31.3876    0.9848   -4.4362 H         1 UNK         0.0717 
     85 H85        30.2113   -0.1424   -5.0726 H         1 UNK         0.0717 
     86 H86        27.6820    2.0483   -3.0013 H         1 UNK         0.0934 
     87 H87        29.1030    2.8448   -3.6104 H         1 UNK         0.0934 
     88 H88        29.0179    1.6028   -5.7099 H         1 UNK         0.0739 
     89 H89        27.3133   -0.2611   -4.3999 H         1 UNK         0.3093 
     90 H90        26.0044   -1.7434   -7.3936 H         1 UNK         0.0818 
     91 H91        28.1745   -2.8659   -7.1537 H         1 UNK         0.0819 
     92 H92        28.0904   -2.7899   -5.4055 H         1 UNK         0.0819 
     93 H93        26.9504   -3.7924   -6.2994 H         1 UNK         0.0819 
     94 H94        25.7767   -2.1557   -4.5129 H         1 UNK         0.3041 
     95 H95        22.9253   -0.0460   -4.1446 H         1 UNK         0.0784 
     96 H96        21.8355   -2.0700   -5.0464 H         1 UNK         0.0793 
     97 H97        22.9799   -3.1074   -4.2123 H         1 UNK         0.0793 
     98 H98        21.8414   -2.1279   -3.2905 H         1 UNK         0.0793 
     99 H99        24.2777   -1.8933   -2.3890 H         1 UNK         0.3024 
    100 H100       26.9029    0.2994   -1.4489 H         1 UNK         0.1171 
    101 H101       25.0353    1.3147   -0.1266 H         1 UNK         0.0786 
    102 H102       24.3951   -0.2865    0.2172 H         1 UNK         0.0786 
    103 H103       25.9726    0.1941    0.8459 H         1 UNK         0.0786 
    104 H104       26.0515   -2.0995   -0.2339 H         1 UNK         0.2977 
    105 H105       25.5521    1.7999   -4.9072 H         1 UNK         0.3127 
    106 H106       25.1879    4.4579   -5.9290 H         1 UNK         0.0770 
    107 H107       23.1755    2.1681   -5.6024 H         1 UNK         0.0814 
    108 H108       22.7743    3.8563   -5.8813 H         1 UNK         0.0814 
    109 H109       23.5676    3.3812   -4.3871 H         1 UNK         0.0814 
    110 H110       24.7076    1.2099   -7.4309 H         1 UNK         0.2983 
    111 H111       23.7383    2.3113   -9.8944 H         1 UNK         0.0947 
    112 H112       24.5947   -0.5384   -9.1771 H         1 UNK         0.0806 
    113 H113       23.6967   -0.0735  -10.6161 H         1 UNK         0.0806 
    114 H114       22.9725    0.1318   -9.0293 H         1 UNK         0.0806 
    115 H115       26.8886    0.7610   -9.0505 H         1 UNK         0.3000 
    116 H116       27.8837    1.3299  -11.8240 H         1 UNK         0.0850 
    117 H117       29.2013   -0.7544  -11.5238 H         1 UNK         0.0810 
    118 H118       27.4867   -1.0839  -11.3352 H         1 UNK         0.0810 
    119 H119       28.5277   -0.9821   -9.9154 H         1 UNK         0.0810 
    120 H120       28.5410    1.7264   -8.4189 H         1 UNK         0.3040 
    121 H121       29.9847    2.9283   -7.2566 H         1 UNK         0.0766 
    122 H122       31.1867    4.0085   -9.8472 H         1 UNK         0.0812 
    123 H123       31.4415    4.6391   -8.2300 H         1 UNK         0.0812 
    124 H124       29.8436    4.7220   -8.9533 H         1 UNK         0.0812 
    125 H125       31.5605    1.1804   -9.8951 H         1 UNK         0.3205 
    126 H126       34.0832    0.7424   -8.5762 H         1 UNK         0.0754 
    127 H127       34.4237   -0.8923  -10.4481 H         1 UNK         0.0769 
    128 H128       33.7843    0.6236  -11.0576 H         1 UNK         0.0769 
    129 H129       32.7224   -0.7723  -10.8804 H         1 UNK         0.0769 
    130 H130       34.9470   -1.2899   -7.8374 H         1 UNK         0.2981 
    131 H131       33.2250   -2.6808   -6.0275 H         1 UNK         0.0541 
    132 H132       33.1647   -5.0445   -9.2776 H         1 UNK         0.3459 
    133 H133       33.6647   -3.3744   -9.3727 H         1 UNK         0.3459 
    134 H134       36.1302   -3.3236   -6.7377 H         1 UNK         0.0612 
    135 H135       35.2687   -3.9339   -5.3517 H         1 UNK         0.0612 
    136 H136       35.5702   -1.2218   -2.7084 H         1 UNK         0.0624 
    137 H137       35.7112   -2.9333   -3.0380 H         1 UNK         0.0624 
@<TRIPOS>BOND
     1    1    2 1    
     2    1   72 1    
     3    1   73 1    
     4    1   74 1    
     5    2    3 2    
     6    2    4 am   BACKBONE|DICT|INTERRES
     7    4    5 1    
     8    4   75 1    
     9    5    6 1    
    10    5   35 1    
    11    5   76 1    
    12    6    7 1    
    13    6   77 1    
    14    6   78 1    
    15    7    8 1    
    16    8    9 1    
    17    8   79 1    
    18    8   80 1    
    19    9   10 ar   
    20    9   14 ar   
    21   10   11 ar   
    22   10   81 1    
    23   11   12 ar   
    24   11   71 1    
    25   12   13 ar   
    26   12   82 1    
    27   13   14 ar   
    28   13   15 1    
    29   14   83 1    
    30   15   16 1    
    31   15   84 1    
    32   15   85 1    
    33   16   17 1    
    34   17   18 1    
    35   17   86 1    
    36   17   87 1    
    37   18   19 1    
    38   18   37 1    
    39   18   88 1    
    40   19   20 am   BACKBONE|DICT|INTERRES
    41   19   89 1    
    42   20   21 2    
    43   20   22 1    
    44   22   23 1    
    45   22   24 1    
    46   22   90 1    
    47   23   91 1    
    48   23   92 1    
    49   23   93 1    
    50   24   25 am   BACKBONE|DICT|INTERRES
    51   24   94 1    
    52   25   26 2    
    53   25   27 1    
    54   27   28 1    
    55   27   29 1    
    56   27   95 1    
    57   28   96 1    
    58   28   97 1    
    59   28   98 1    
    60   29   30 am   BACKBONE|DICT|INTERRES
    61   29   99 1    
    62   30   31 2    
    63   30   32 1    
    64   32   33 1    
    65   32   34 1    
    66   32  100 1    
    67   33  101 1    
    68   33  102 1    
    69   33  103 1    
    70   34   35 am   BACKBONE|DICT|INTERRES
    71   34  104 1    
    72   35   36 2    
    73   37   38 2    
    74   37   39 am   BACKBONE|DICT|INTERRES
    75   39   40 1    
    76   39  105 1    
    77   40   41 1    
    78   40   42 1    
    79   40  106 1    
    80   41  107 1    
    81   41  108 1    
    82   41  109 1    
    83   42   43 2    
    84   42   44 am   BACKBONE|DICT|INTERRES
    85   44   45 1    
    86   44  110 1    
    87   45   46 1    
    88   45   47 1    
    89   45  111 1    
    90   46  112 1    
    91   46  113 1    
    92   46  114 1    
    93   47   48 2    
    94   47   49 am   BACKBONE|DICT|INTERRES
    95   49   50 1    
    96   49  115 1    
    97   50   51 1    
    98   50   52 1    
    99   50  116 1    
   100   51  117 1    
   101   51  118 1    
   102   51  119 1    
   103   52   53 2    
   104   52   54 am   BACKBONE|DICT|INTERRES
   105   54   55 1    
   106   54  120 1    
   107   55   56 1    
   108   55   57 1    
   109   55  121 1    
   110   56  122 1    
   111   56  123 1    
   112   56  124 1    
   113   57   58 2    
   114   57   59 am   BACKBONE|DICT|INTERRES
   115   59   60 1    
   116   59  125 1    
   117   60   61 1    
   118   60   62 1    
   119   60  126 1    
   120   61  127 1    
   121   61  128 1    
   122   61  129 1    
   123   62   63 2    
   124   62   64 am   BACKBONE|DICT|INTERRES
   125   64   65 1    
   126   64  130 1    
   127   65   66 1    
   128   65   69 1    
   129   65  131 1    
   130   66   67 am   BACKBONE|DICT|INTERRES
   131   66   68 2    
   132   67  132 1    
   133   67  133 1    
   134   69   70 1    
   135   69  134 1    
   136   69  135 1    
   137   70   71 1    
   138   71  136 1    
   139   71  137 1    
@<TRIPOS>SUBSTRUCTURE
     1 UNK         1 GROUP             0       ****    0 ROOT    
