@<TRIPOS>MOLECULE
3R137
137   139    1
SMALL
USER_CHARGES


@<TRIPOS>ATOM
      1 CA         26.9097   -0.1905    1.8763 C.3       0 UNK        -0.2020 
      2 C          27.1171   -1.4389    1.0325 C.2       0 UNK         0.4855 
      3 O          26.5483   -2.4860    1.3401 O.2       0 UNK        -0.5197 
      4 N          27.9058   -1.3264   -0.0438 N.am      1 UNK        -0.4892 
      5 CA         28.3258   -2.3811   -0.9856 C.3       1 UNK         0.0835 
      6 C6         29.1459   -3.5296   -0.3380 C.3       12 UNK        -0.0855 
      7 S7         30.6442   -2.9000    0.5060 S.3       12 UNK        -0.2931 
      8 C8         31.9547   -3.1319   -0.7467 C.3       12 UNK         0.0378 
      9 C9         31.6093   -2.4794   -2.0795 C.ar      12 UNK        -0.0802 
     10 C10        31.3619   -3.2748   -3.2026 C.ar      12 UNK        -0.0944 
     11 C11        30.9703   -2.6981   -4.4138 C.ar      12 UNK        -0.0787 
     12 C12        30.8115   -1.3105   -4.4896 C.ar      12 UNK        -0.0862 
     13 C13        31.0687   -0.5017   -3.3785 C.ar      12 UNK        -0.0733 
     14 C14        31.4926   -1.0886   -2.1820 C.ar      12 UNK        -0.0832 
     15 C15        30.8607    1.0033   -3.4697 C.3       12 UNK         0.0240 
     16 S16        29.3373    1.5609   -2.6285 S.3       12 UNK        -0.2522 
     17 C17        28.0338    0.4997   -3.3426 C.3       12 UNK        -0.0967 
     18 CA         27.7260    0.7596   -4.8328 C.3       5 UNK         0.0660 
     19 N          27.0912   -0.4068   -5.4481 N.am      5 UNK        -0.4015 
     20 C          27.0837   -0.6526   -6.7650 C.2       4 UNK         0.4946 
     21 O          27.6555    0.0580   -7.5908 O.2       4 UNK        -0.5353 
     22 CA         26.2761   -1.8699   -7.2530 C.3       4 UNK         0.0277 
     23 CB         27.1548   -3.1286   -7.2851 C.3       4 UNK        -0.1981 
     24 N          25.0861   -2.1421   -6.4441 N.am      4 UNK        -0.4209 
     25 C          24.0514   -1.3037   -6.2978 C.2       3 UNK         0.4942 
     26 O          23.9549   -0.2328   -6.8936 O.2       3 UNK        -0.5208 
     27 CA         22.9687   -1.6922   -5.2760 C.3       3 UNK         0.0250 
     28 CB         21.8017   -2.4035   -5.9783 C.3       3 UNK        -0.1990 
     29 N          23.4500   -2.5231   -4.1644 N.am      3 UNK        -0.4232 
     30 C          24.4191   -2.1856   -3.3002 C.2       2 UNK         0.4993 
     31 O          25.0482   -1.1249   -3.3724 O.2       2 UNK        -0.5286 
     32 CA         24.7130   -3.1987   -2.1719 C.3       2 UNK         0.0209 
     33 CB         24.7063   -4.6650   -2.6626 C.3       2 UNK        -0.1931 
     34 N          25.9544   -2.9025   -1.4452 N.am      2 UNK        -0.4546 
     35 C          27.2080   -2.9011   -1.9186 C.2       1 UNK         0.5154 
     36 O          27.5029   -3.2447   -3.0646 O.2       1 UNK        -0.5181 
     37 C          26.8836    2.0291   -5.0500 C.2       5 UNK         0.5014 
     38 O          27.4494    3.0810   -5.3473 O.2       5 UNK        -0.5248 
     39 N          25.5496    1.9033   -4.9625 N.am      6 UNK        -0.4434 
     40 CA         24.5972    2.9766   -5.2711 C.3       6 UNK         0.0363 
     41 CB         23.1812    2.5564   -4.8456 C.3       6 UNK        -0.1936 
     42 C          24.6283    3.3856   -6.7559 C.2       6 UNK         0.5081 
     43 O          24.5504    4.5755   -7.0611 O.2       6 UNK        -0.5248 
     44 N          24.7858    2.3967   -7.6464 N.am      7 UNK        -0.4718 
     45 CA         24.9931    2.5772   -9.0864 C.3       7 UNK         0.0273 
     46 CB         24.7125    1.2418   -9.7953 C.3       7 UNK        -0.1935 
     47 C          26.4013    3.0868   -9.4541 C.2       7 UNK         0.5018 
     48 O          26.5994    3.5006  -10.5972 O.2       7 UNK        -0.5186 
     49 N          27.3423    3.0374   -8.4985 N.am      8 UNK        -0.4240 
     50 CA         28.7600    3.3968   -8.6071 C.3       8 UNK         0.0235 
     51 CB         28.9271    4.9141   -8.8376 C.3       8 UNK        -0.2000 
     52 C          29.5121    2.5352   -9.6399 C.2       8 UNK         0.4941 
     53 O          30.2327    3.0699  -10.4864 O.2       8 UNK        -0.5273 
     54 N          29.3213    1.2115   -9.5562 N.am      9 UNK        -0.4262 
     55 CA         30.0015    0.2138  -10.3832 C.3       9 UNK         0.0264 
     56 CB         29.3302   -1.1520  -10.1679 C.3       9 UNK        -0.1955 
     57 C          31.5044    0.1241  -10.0647 C.2       9 UNK         0.5031 
     58 O          31.9199    0.3921   -8.9331 O.2       9 UNK        -0.5390 
     59 N          32.2924   -0.2941  -11.0629 N.am      10 UNK        -0.4204 
     60 CA         33.7434   -0.4788  -10.9766 C.3       10 UNK         0.0237 
     61 CB         34.3407   -0.3999  -12.3948 C.3       10 UNK        -0.1985 
     62 C          34.1135   -1.7865  -10.2485 C.2       10 UNK         0.4970 
     63 O          34.6865   -2.6926  -10.8567 O.2       10 UNK        -0.4914 
     64 N          33.7619   -1.8641   -8.9607 N.am      11 UNK        -0.4285 
     65 CA         34.0325   -3.0069   -8.0724 C.3       11 UNK         0.1007 
     66 C          35.5299   -3.1951   -7.6883 C.2       11 UNK         0.5703 
     67 N          36.4031   -2.2175   -7.9028 N.am      11 UNK        -0.7361 
     68 O          35.9070   -4.2542   -7.1923 O.2       11 UNK        -0.4986 
     69 C69        33.1454   -2.9627   -6.8019 C.3       12 UNK        -0.0947 
     70 S70        31.3624   -2.9638   -7.1831 S.3       12 UNK        -0.2240 
     71 C71        30.6768   -3.5921   -5.6148 C.3       12 UNK         0.0194 
     72 H72        27.2516   -0.3675    2.8957 H         1 UNK         0.0906 
     73 H73        27.4549    0.6663    1.4804 H         1 UNK         0.0906 
     74 H74        25.8517    0.0676    1.9116 H         1 UNK         0.0906 
     75 H75        28.3114   -0.4212   -0.2385 H         1 UNK         0.3140 
     76 H76        29.0084   -1.8733   -1.6589 H         1 UNK         0.1085 
     77 H77        29.4455   -4.2637   -1.0885 H         1 UNK         0.0836 
     78 H78        28.5386   -4.0726    0.3877 H         1 UNK         0.0836 
     79 H79        32.1368   -4.2004   -0.8725 H         1 UNK         0.0731 
     80 H80        32.8854   -2.7060   -0.3693 H         1 UNK         0.0731 
     81 H81        31.4522   -4.3499   -3.1276 H         1 UNK         0.1312 
     82 H82        30.4794   -0.8617   -5.4158 H         1 UNK         0.1406 
     83 H83        31.6758   -0.4689   -1.3142 H         1 UNK         0.1631 
     84 H84        30.8372    1.3271   -4.5112 H         1 UNK         0.0717 
     85 H85        31.7141    1.5122   -3.0192 H         1 UNK         0.0717 
     86 H86        28.3574   -0.5311   -3.2331 H         1 UNK         0.0934 
     87 H87        27.1328    0.5865   -2.7317 H         1 UNK         0.0934 
     88 H88        28.6732    0.9144   -5.3524 H         1 UNK         0.0739 
     89 H89        26.5567   -1.0061   -4.8282 H         1 UNK         0.3093 
     90 H90        25.9485   -1.6538   -8.2718 H         1 UNK         0.0818 
     91 H91        26.6525   -3.9477   -7.8000 H         1 UNK         0.0819 
     92 H92        28.0935   -2.9462   -7.8091 H         1 UNK         0.0819 
     93 H93        27.3990   -3.4678   -6.2782 H         1 UNK         0.0819 
     94 H94        25.0809   -3.0012   -5.9139 H         1 UNK         0.3041 
     95 H95        22.5903   -0.7639   -4.8434 H         1 UNK         0.0784 
     96 H96        21.4093   -1.7956   -6.7951 H         1 UNK         0.0793 
     97 H97        22.1075   -3.3607   -6.4026 H         1 UNK         0.0793 
     98 H98        20.9760   -2.5878   -5.2906 H         1 UNK         0.0793 
     99 H99        22.9804   -3.4076   -4.0336 H         1 UNK         0.3024 
    100 H100       23.9075   -3.0834   -1.4448 H         1 UNK         0.1171 
    101 H101       25.0019   -5.3474   -1.8655 H         1 UNK         0.0786 
    102 H102       23.7135   -4.9763   -2.9883 H         1 UNK         0.0786 
    103 H103       25.3893   -4.8188   -3.4989 H         1 UNK         0.0786 
    104 H104       25.8480   -2.6218   -0.4749 H         1 UNK         0.2977 
    105 H105       25.1624    1.0019   -4.7165 H         1 UNK         0.3127 
    106 H106       24.8823    3.8510   -4.6820 H         1 UNK         0.0770 
    107 H107       22.8220    1.6999   -5.4159 H         1 UNK         0.0814 
    108 H108       22.4725    3.3701   -5.0050 H         1 UNK         0.0814 
    109 H109       23.1433    2.2969   -3.7876 H         1 UNK         0.0814 
    110 H110       24.7338    1.4360   -7.3142 H         1 UNK         0.2983 
    111 H111       24.2748    3.3171   -9.4462 H         1 UNK         0.0947 
    112 H112       25.4151    0.4683   -9.4833 H         1 UNK         0.0806 
    113 H113       24.8007    1.3456  -10.8776 H         1 UNK         0.0806 
    114 H114       23.7046    0.8835   -9.5848 H         1 UNK         0.0806 
    115 H115       27.0627    2.6703   -7.5983 H         1 UNK         0.3000 
    116 H116       29.2053    3.1625   -7.6389 H         1 UNK         0.0850 
    117 H117       28.4097    5.4894   -8.0697 H         1 UNK         0.0810 
    118 H118       28.5386    5.2233   -9.8084 H         1 UNK         0.0810 
    119 H119       29.9790    5.1998   -8.8029 H         1 UNK         0.0810 
    120 H120       28.7184    0.8481   -8.8180 H         1 UNK         0.3040 
    121 H121       29.8796    0.5058  -11.4284 H         1 UNK         0.0766 
    122 H122       29.7670   -1.9149  -10.8134 H         1 UNK         0.0812 
    123 H123       28.2629   -1.1114  -10.3864 H         1 UNK         0.0812 
    124 H124       29.4477   -1.4909   -9.1383 H         1 UNK         0.0812 
    125 H125       31.8649   -0.5351  -11.9459 H         1 UNK         0.3205 
    126 H126       34.1665    0.3442  -10.3962 H         1 UNK         0.0754 
    127 H127       35.4262   -0.5061  -12.3680 H         1 UNK         0.0769 
    128 H128       34.1238    0.5603  -12.8634 H         1 UNK         0.0769 
    129 H129       33.9517   -1.1856  -13.0438 H         1 UNK         0.0769 
    130 H130       33.2335   -1.0935   -8.5638 H         1 UNK         0.2981 
    131 H131       33.7586   -3.9074   -8.6255 H         1 UNK         0.0541 
    132 H132       37.3698   -2.3555   -7.6535 H         1 UNK         0.3459 
    133 H133       36.1043   -1.3439   -8.3046 H         1 UNK         0.3459 
    134 H134       33.3545   -3.8228   -6.1628 H         1 UNK         0.0612 
    135 H135       33.3702   -2.0753   -6.2074 H         1 UNK         0.0612 
    136 H136       29.5975   -3.6899   -5.7143 H         1 UNK         0.0624 
    137 H137       31.0620   -4.5995   -5.4499 H         1 UNK         0.0624 
@<TRIPOS>BOND
     1    1    2 1    
     2    1   72 1    
     3    1   73 1    
     4    1   74 1    
     5    2    3 2    
     6    2    4 am   BACKBONE|DICT|INTERRES
     7    4    5 1    
     8    4   75 1    
     9    5    6 1    
    10    5   35 1    
    11    5   76 1    
    12    6    7 1    
    13    6   77 1    
    14    6   78 1    
    15    7    8 1    
    16    8    9 1    
    17    8   79 1    
    18    8   80 1    
    19    9   10 ar   
    20    9   14 ar   
    21   10   11 ar   
    22   10   81 1    
    23   11   12 ar   
    24   11   71 1    
    25   12   13 ar   
    26   12   82 1    
    27   13   14 ar   
    28   13   15 1    
    29   14   83 1    
    30   15   16 1    
    31   15   84 1    
    32   15   85 1    
    33   16   17 1    
    34   17   18 1    
    35   17   86 1    
    36   17   87 1    
    37   18   19 1    
    38   18   37 1    
    39   18   88 1    
    40   19   20 am   BACKBONE|DICT|INTERRES
    41   19   89 1    
    42   20   21 2    
    43   20   22 1    
    44   22   23 1    
    45   22   24 1    
    46   22   90 1    
    47   23   91 1    
    48   23   92 1    
    49   23   93 1    
    50   24   25 am   BACKBONE|DICT|INTERRES
    51   24   94 1    
    52   25   26 2    
    53   25   27 1    
    54   27   28 1    
    55   27   29 1    
    56   27   95 1    
    57   28   96 1    
    58   28   97 1    
    59   28   98 1    
    60   29   30 am   BACKBONE|DICT|INTERRES
    61   29   99 1    
    62   30   31 2    
    63   30   32 1    
    64   32   33 1    
    65   32   34 1    
    66   32  100 1    
    67   33  101 1    
    68   33  102 1    
    69   33  103 1    
    70   34   35 am   BACKBONE|DICT|INTERRES
    71   34  104 1    
    72   35   36 2    
    73   37   38 2    
    74   37   39 am   BACKBONE|DICT|INTERRES
    75   39   40 1    
    76   39  105 1    
    77   40   41 1    
    78   40   42 1    
    79   40  106 1    
    80   41  107 1    
    81   41  108 1    
    82   41  109 1    
    83   42   43 2    
    84   42   44 am   BACKBONE|DICT|INTERRES
    85   44   45 1    
    86   44  110 1    
    87   45   46 1    
    88   45   47 1    
    89   45  111 1    
    90   46  112 1    
    91   46  113 1    
    92   46  114 1    
    93   47   48 2    
    94   47   49 am   BACKBONE|DICT|INTERRES
    95   49   50 1    
    96   49  115 1    
    97   50   51 1    
    98   50   52 1    
    99   50  116 1    
   100   51  117 1    
   101   51  118 1    
   102   51  119 1    
   103   52   53 2    
   104   52   54 am   BACKBONE|DICT|INTERRES
   105   54   55 1    
   106   54  120 1    
   107   55   56 1    
   108   55   57 1    
   109   55  121 1    
   110   56  122 1    
   111   56  123 1    
   112   56  124 1    
   113   57   58 2    
   114   57   59 am   BACKBONE|DICT|INTERRES
   115   59   60 1    
   116   59  125 1    
   117   60   61 1    
   118   60   62 1    
   119   60  126 1    
   120   61  127 1    
   121   61  128 1    
   122   61  129 1    
   123   62   63 2    
   124   62   64 am   BACKBONE|DICT|INTERRES
   125   64   65 1    
   126   64  130 1    
   127   65   66 1    
   128   65   69 1    
   129   65  131 1    
   130   66   67 am   BACKBONE|DICT|INTERRES
   131   66   68 2    
   132   67  132 1    
   133   67  133 1    
   134   69   70 1    
   135   69  134 1    
   136   69  135 1    
   137   70   71 1    
   138   71  136 1    
   139   71  137 1    
@<TRIPOS>SUBSTRUCTURE
     1 UNK         1 GROUP             0       ****    0 ROOT    
