@<TRIPOS>MOLECULE
3R137
137   139    1
SMALL
USER_CHARGES


@<TRIPOS>ATOM
      1 CA         27.4044   -3.5073    3.2839 C.3       0 UNK        -0.2020 
      2 C          26.8428   -2.3458    2.4775 C.2       0 UNK         0.4855 
      3 O          26.0607   -1.5546    3.0061 O.2       0 UNK        -0.5197 
      4 N          27.2419   -2.2323    1.2051 N.am      1 UNK        -0.4892 
      5 CA         26.7595   -1.2114    0.2686 C.3       1 UNK         0.0835 
      6 C6         27.6808   -1.0760   -0.9676 C.3       12 UNK        -0.0855 
      7 S7         29.3691   -0.5399   -0.5362 S.3       12 UNK        -0.2931 
      8 C8         30.3512   -2.0169   -0.9504 C.3       12 UNK         0.0378 
      9 C9         30.5399   -2.1891   -2.4528 C.ar      12 UNK        -0.0802 
     10 C10        31.4066   -1.3408   -3.1485 C.ar      12 UNK        -0.0944 
     11 C11        31.6333   -1.5230   -4.5156 C.ar      12 UNK        -0.0787 
     12 C12        30.9866   -2.5622   -5.1904 C.ar      12 UNK        -0.0862 
     13 C13        30.1232   -3.4219   -4.5060 C.ar      12 UNK        -0.0733 
     14 C14        29.8944   -3.2236   -3.1395 C.ar      12 UNK        -0.0832 
     15 C15        29.4864   -4.6035   -5.2231 C.3       12 UNK         0.0240 
     16 S16        27.8865   -4.1769   -5.9731 S.3       12 UNK        -0.2522 
     17 C17        28.3625   -3.6145   -7.6487 C.3       12 UNK        -0.0967 
     18 CA         27.7152   -2.2704   -8.0682 C.3       5 UNK         0.0660 
     19 N          26.2700   -2.2618   -7.8220 N.am      5 UNK        -0.4015 
     20 C          25.4194   -1.2978   -8.1936 C.2       4 UNK         0.4946 
     21 O          25.7486   -0.3233   -8.8660 O.2       4 UNK        -0.5353 
     22 CA         23.9647   -1.4050   -7.7057 C.3       4 UNK         0.0277 
     23 CB         23.0744   -1.9874   -8.8147 C.3       4 UNK        -0.1981 
     24 N          23.7749   -2.1778   -6.4719 N.am      4 UNK        -0.4209 
     25 C          24.3328   -1.9056   -5.2835 C.2       3 UNK         0.4942 
     26 O          25.1816   -1.0274   -5.1033 O.2       3 UNK        -0.5208 
     27 CA         23.8977   -2.8125   -4.1194 C.3       3 UNK         0.0250 
     28 CB         24.8510   -4.0098   -3.9854 C.3       3 UNK        -0.1990 
     29 N          23.8537   -2.1078   -2.8394 N.am      3 UNK        -0.4232 
     30 C          23.0452   -1.0908   -2.5201 C.2       2 UNK         0.4993 
     31 O          22.1822   -0.6440   -3.2773 O.2       2 UNK        -0.5286 
     32 CA         23.2104   -0.4556   -1.1230 C.3       2 UNK         0.0209 
     33 CB         22.1987   -1.0537   -0.1248 C.3       2 UNK        -0.1931 
     34 N          24.5792   -0.4726   -0.5728 N.am      2 UNK        -0.4546 
     35 C          25.3227   -1.5233   -0.1937 C.2       1 UNK         0.5154 
     36 O          24.9472   -2.6958   -0.2761 O.2       1 UNK        -0.5181 
     37 C          28.4470   -1.0613   -7.4484 C.2       5 UNK         0.5014 
     38 O          29.3923   -0.5553   -8.0575 O.2       5 UNK        -0.5248 
     39 N          27.9886   -0.5959   -6.2783 N.am      6 UNK        -0.4434 
     40 CA         28.5221    0.5950   -5.6200 C.3       6 UNK         0.0363 
     41 CB         28.1740    0.5549   -4.1285 C.3       6 UNK        -0.1936 
     42 C          28.0047    1.8861   -6.2703 C.2       6 UNK         0.5081 
     43 O          28.7684    2.8421   -6.3952 O.2       6 UNK        -0.5248 
     44 N          26.7353    1.8845   -6.7045 N.am      7 UNK        -0.4718 
     45 CA         26.0982    2.9991   -7.4150 C.3       7 UNK         0.0273 
     46 CB         24.5798    2.7706   -7.4854 C.3       7 UNK        -0.1935 
     47 C          26.6871    3.2129   -8.8201 C.2       7 UNK         0.5018 
     48 O          26.9187    4.3556   -9.2154 O.2       7 UNK        -0.5186 
     49 N          26.9548    2.1074   -9.5288 N.am      8 UNK        -0.4240 
     50 CA         27.6487    2.0739  -10.8189 C.3       8 UNK         0.0235 
     51 CB         27.4068    0.7046  -11.4761 C.3       8 UNK        -0.2000 
     52 C          29.1607    2.3478  -10.7104 C.2       8 UNK         0.4941 
     53 O          29.7909    2.6015  -11.7377 O.2       8 UNK        -0.5273 
     54 N          29.7088    2.2787   -9.4872 N.am      9 UNK        -0.4262 
     55 CA         31.1183    2.4397   -9.1221 C.3       9 UNK         0.0264 
     56 CB         31.5966    3.8845   -9.3787 C.3       9 UNK        -0.1955 
     57 C          32.0151    1.3761   -9.7801 C.2       9 UNK         0.5031 
     58 O          33.0529    1.7087  -10.3574 O.2       9 UNK        -0.5390 
     59 N          31.6136    0.1018   -9.6516 N.am      10 UNK        -0.4204 
     60 CA         32.3215   -1.0728  -10.1819 C.3       10 UNK         0.0237 
     61 CB         31.4758   -2.3292   -9.9185 C.3       10 UNK        -0.1985 
     62 C          33.7451   -1.2596   -9.6204 C.2       10 UNK         0.4970 
     63 O          34.5679   -1.9158  -10.2596 O.2       10 UNK        -0.4914 
     64 N          34.0060   -0.6645   -8.4513 N.am      11 UNK        -0.4285 
     65 CA         35.3234   -0.5534   -7.8141 C.3       11 UNK         0.1007 
     66 C          36.3069    0.4113   -8.5419 C.2       11 UNK         0.5703 
     67 N          35.8664    1.2471   -9.4769 N.am      11 UNK        -0.7361 
     68 O          37.5013    0.3947   -8.2537 O.2       11 UNK        -0.4986 
     69 C69        35.1840   -0.1700   -6.3171 C.3       12 UNK        -0.0947 
     70 S70        34.2440   -1.4049   -5.3601 S.3       12 UNK        -0.2240 
     71 C71        32.6043   -0.6220   -5.2585 C.3       12 UNK         0.0194 
     72 H72        27.9377   -3.1343    4.1579 H         1 UNK         0.0906 
     73 H73        26.5950   -4.1510    3.6273 H         1 UNK         0.0906 
     74 H74        28.0954   -4.1144    2.6992 H         1 UNK         0.0906 
     75 H75        27.8642   -2.9241    0.8152 H         1 UNK         0.3140 
     76 H76        26.7436   -0.2538    0.7948 H         1 UNK         0.1085 
     77 H77        27.7148   -2.0085   -1.5341 H         1 UNK         0.0836 
     78 H78        27.2760   -0.3266   -1.6484 H         1 UNK         0.0836 
     79 H79        31.3314   -1.9247   -0.4804 H         1 UNK         0.0731 
     80 H80        29.8886   -2.9008   -0.5091 H         1 UNK         0.0731 
     81 H81        31.9167   -0.5474   -2.6192 H         1 UNK         0.1312 
     82 H82        31.1787   -2.7153   -6.2430 H         1 UNK         0.1406 
     83 H83        29.2348   -3.8946   -2.6062 H         1 UNK         0.1631 
     84 H84        29.3244   -5.4162   -4.5134 H         1 UNK         0.0717 
     85 H85        30.1629   -5.0040   -5.9796 H         1 UNK         0.0717 
     86 H86        29.4483   -3.5683   -7.7420 H         1 UNK         0.0934 
     87 H87        28.0512   -4.3921   -8.3480 H         1 UNK         0.0934 
     88 H88        27.8435   -2.1726   -9.1484 H         1 UNK         0.0739 
     89 H89        25.9201   -3.0192   -7.2537 H         1 UNK         0.3093 
     90 H90        23.6253   -0.3885   -7.4980 H         1 UNK         0.0818 
     91 H91        22.0210   -1.9604   -8.5355 H         1 UNK         0.0819 
     92 H92        23.1757   -1.4144   -9.7379 H         1 UNK         0.0819 
     93 H93        23.3368   -3.0212   -9.0432 H         1 UNK         0.0819 
     94 H94        23.1091   -2.9360   -6.5235 H         1 UNK         0.3041 
     95 H95        22.8918   -3.1854   -4.3230 H         1 UNK         0.0784 
     96 H96        24.9045   -4.5795   -4.9141 H         1 UNK         0.0793 
     97 H97        25.8640   -3.6889   -3.7381 H         1 UNK         0.0793 
     98 H98        24.5195   -4.6957   -3.2055 H         1 UNK         0.0793 
     99 H99        24.4797   -2.4374   -2.1120 H         1 UNK         0.3024 
    100 H100       22.9584    0.5994   -1.2459 H         1 UNK         0.1171 
    101 H101       21.1773   -0.9349   -0.4890 H         1 UNK         0.0786 
    102 H102       22.2562   -0.5575    0.8440 H         1 UNK         0.0786 
    103 H103       22.3614   -2.1201    0.0339 H         1 UNK         0.0786 
    104 H104       25.0065    0.4416   -0.5056 H         1 UNK         0.2977 
    105 H105       27.1823   -1.0361   -5.8477 H         1 UNK         0.3127 
    106 H106       29.6108    0.5856   -5.7090 H         1 UNK         0.0770 
    107 H107       27.0964    0.5726   -3.9619 H         1 UNK         0.0814 
    108 H108       28.6043    1.4075   -3.6017 H         1 UNK         0.0814 
    109 H109       28.5740   -0.3471   -3.6666 H         1 UNK         0.0814 
    110 H110       26.1836    1.0482   -6.5711 H         1 UNK         0.2983 
    111 H111       26.2789    3.9096   -6.8391 H         1 UNK         0.0947 
    112 H112       24.0809    3.6250   -7.9447 H         1 UNK         0.0806 
    113 H113       24.1497    2.6401   -6.4922 H         1 UNK         0.0806 
    114 H114       24.3280    1.8923   -8.0798 H         1 UNK         0.0806 
    115 H115       26.6433    1.2085   -9.1605 H         1 UNK         0.3000 
    116 H116       27.2196    2.8470  -11.4597 H         1 UNK         0.0850 
    117 H117       27.8710    0.6541  -12.4620 H         1 UNK         0.0810 
    118 H118       26.3423    0.5103  -11.6084 H         1 UNK         0.0810 
    119 H119       27.8225   -0.1066  -10.8765 H         1 UNK         0.0810 
    120 H120       29.0911    2.0513   -8.7198 H         1 UNK         0.3040 
    121 H121       31.1740    2.2633   -8.0466 H         1 UNK         0.0766 
    122 H122       32.6086    4.0328   -9.0002 H         1 UNK         0.0812 
    123 H123       30.9537    4.6083   -8.8777 H         1 UNK         0.0812 
    124 H124       31.6100    4.1260  -10.4419 H         1 UNK         0.0812 
    125 H125       30.7543   -0.0857   -9.1326 H         1 UNK         0.3205 
    126 H126       32.4139   -0.9380  -11.2613 H         1 UNK         0.0754 
    127 H127       31.9417   -3.2140  -10.3546 H         1 UNK         0.0769 
    128 H128       30.4806   -2.2383  -10.3546 H         1 UNK         0.0769 
    129 H129       31.3595   -2.5140   -8.8503 H         1 UNK         0.0769 
    130 H130       33.2618   -0.1480   -8.0123 H         1 UNK         0.2981 
    131 H131       35.7872   -1.5404   -7.8614 H         1 UNK         0.0541 
    132 H132       34.8855    1.2862   -9.7352 H         1 UNK         0.3459 
    133 H133       36.5245    1.8571   -9.9346 H         1 UNK         0.3459 
    134 H134       36.1683   -0.0910   -5.8518 H         1 UNK         0.0612 
    135 H135       34.7192    0.8118   -6.2091 H         1 UNK         0.0612 
    136 H136       32.2224   -0.4199   -6.2598 H         1 UNK         0.0624 
    137 H137       32.6908    0.3425   -4.7557 H         1 UNK         0.0624 
@<TRIPOS>BOND
     1    1    2 1    
     2    1   72 1    
     3    1   73 1    
     4    1   74 1    
     5    2    3 2    
     6    2    4 am   BACKBONE|DICT|INTERRES
     7    4    5 1    
     8    4   75 1    
     9    5    6 1    
    10    5   35 1    
    11    5   76 1    
    12    6    7 1    
    13    6   77 1    
    14    6   78 1    
    15    7    8 1    
    16    8    9 1    
    17    8   79 1    
    18    8   80 1    
    19    9   10 ar   
    20    9   14 ar   
    21   10   11 ar   
    22   10   81 1    
    23   11   12 ar   
    24   11   71 1    
    25   12   13 ar   
    26   12   82 1    
    27   13   14 ar   
    28   13   15 1    
    29   14   83 1    
    30   15   16 1    
    31   15   84 1    
    32   15   85 1    
    33   16   17 1    
    34   17   18 1    
    35   17   86 1    
    36   17   87 1    
    37   18   19 1    
    38   18   37 1    
    39   18   88 1    
    40   19   20 am   BACKBONE|DICT|INTERRES
    41   19   89 1    
    42   20   21 2    
    43   20   22 1    
    44   22   23 1    
    45   22   24 1    
    46   22   90 1    
    47   23   91 1    
    48   23   92 1    
    49   23   93 1    
    50   24   25 am   BACKBONE|DICT|INTERRES
    51   24   94 1    
    52   25   26 2    
    53   25   27 1    
    54   27   28 1    
    55   27   29 1    
    56   27   95 1    
    57   28   96 1    
    58   28   97 1    
    59   28   98 1    
    60   29   30 am   BACKBONE|DICT|INTERRES
    61   29   99 1    
    62   30   31 2    
    63   30   32 1    
    64   32   33 1    
    65   32   34 1    
    66   32  100 1    
    67   33  101 1    
    68   33  102 1    
    69   33  103 1    
    70   34   35 am   BACKBONE|DICT|INTERRES
    71   34  104 1    
    72   35   36 2    
    73   37   38 2    
    74   37   39 am   BACKBONE|DICT|INTERRES
    75   39   40 1    
    76   39  105 1    
    77   40   41 1    
    78   40   42 1    
    79   40  106 1    
    80   41  107 1    
    81   41  108 1    
    82   41  109 1    
    83   42   43 2    
    84   42   44 am   BACKBONE|DICT|INTERRES
    85   44   45 1    
    86   44  110 1    
    87   45   46 1    
    88   45   47 1    
    89   45  111 1    
    90   46  112 1    
    91   46  113 1    
    92   46  114 1    
    93   47   48 2    
    94   47   49 am   BACKBONE|DICT|INTERRES
    95   49   50 1    
    96   49  115 1    
    97   50   51 1    
    98   50   52 1    
    99   50  116 1    
   100   51  117 1    
   101   51  118 1    
   102   51  119 1    
   103   52   53 2    
   104   52   54 am   BACKBONE|DICT|INTERRES
   105   54   55 1    
   106   54  120 1    
   107   55   56 1    
   108   55   57 1    
   109   55  121 1    
   110   56  122 1    
   111   56  123 1    
   112   56  124 1    
   113   57   58 2    
   114   57   59 am   BACKBONE|DICT|INTERRES
   115   59   60 1    
   116   59  125 1    
   117   60   61 1    
   118   60   62 1    
   119   60  126 1    
   120   61  127 1    
   121   61  128 1    
   122   61  129 1    
   123   62   63 2    
   124   62   64 am   BACKBONE|DICT|INTERRES
   125   64   65 1    
   126   64  130 1    
   127   65   66 1    
   128   65   69 1    
   129   65  131 1    
   130   66   67 am   BACKBONE|DICT|INTERRES
   131   66   68 2    
   132   67  132 1    
   133   67  133 1    
   134   69   70 1    
   135   69  134 1    
   136   69  135 1    
   137   70   71 1    
   138   71  136 1    
   139   71  137 1    
@<TRIPOS>SUBSTRUCTURE
     1 UNK         1 GROUP             0       ****    0 ROOT    
