@<TRIPOS>MOLECULE
3R137
137   139    1
SMALL
USER_CHARGES


@<TRIPOS>ATOM
      1 CA         29.5432   -8.3775   -1.0795 C.3       0 UNK        -0.2020 
      2 C          28.6145   -7.2854   -0.5707 C.2       0 UNK         0.4855 
      3 O          27.8617   -7.5132    0.3764 O.2       0 UNK        -0.5197 
      4 N          28.6601   -6.1000   -1.1925 N.am      1 UNK        -0.4892 
      5 CA         27.8247   -4.9389   -0.8555 C.3       1 UNK         0.0835 
      6 C6         28.4412   -3.6228   -1.3915 C.3       12 UNK        -0.0855 
      7 S7         28.7099   -3.6177   -3.2003 S.3       12 UNK        -0.2931 
      8 C8         28.1251   -1.9550   -3.6418 C.3       12 UNK         0.0378 
      9 C9         29.0932   -0.8670   -3.2080 C.ar      12 UNK        -0.0802 
     10 C10        30.2728   -0.6513   -3.9253 C.ar      12 UNK        -0.0944 
     11 C11        31.1316    0.3961   -3.5819 C.ar      12 UNK        -0.0787 
     12 C12        30.8007    1.2366   -2.5144 C.ar      12 UNK        -0.0862 
     13 C13        29.6268    1.0254   -1.7838 C.ar      12 UNK        -0.0733 
     14 C14        28.7871   -0.0405   -2.1247 C.ar      12 UNK        -0.0832 
     15 C15        29.2553    1.9602   -0.6401 C.3       12 UNK         0.0240 
     16 S16        27.5786    2.6516   -0.8284 S.3       12 UNK        -0.2522 
     17 C17        27.7559    3.7213   -2.2999 C.3       12 UNK        -0.0967 
     18 CA         27.5114    2.9993   -3.6576 C.3       5 UNK         0.0660 
     19 N          26.2873    2.1902   -3.6453 N.am      5 UNK        -0.4015 
     20 C          26.0303    1.1540   -4.4526 C.2       4 UNK         0.4946 
     21 O          26.7809    0.7765   -5.3565 O.2       4 UNK        -0.5353 
     22 CA         24.7028    0.4263   -4.2227 C.3       4 UNK         0.0277 
     23 CB         23.5316    1.2134   -4.8367 C.3       4 UNK        -0.1981 
     24 N          24.7774   -0.8936   -4.8457 N.am      4 UNK        -0.4209 
     25 C          24.2910   -2.0269   -4.3288 C.2       3 UNK         0.4942 
     26 O          23.6834   -2.0708   -3.2574 O.2       3 UNK        -0.5208 
     27 CA         24.4961   -3.3247   -5.1377 C.3       3 UNK         0.0250 
     28 CB         25.4845   -3.2021   -6.3172 C.3       3 UNK        -0.1990 
     29 N          24.9302   -4.4129   -4.2580 N.am      3 UNK        -0.4232 
     30 C          24.1120   -5.2922   -3.6629 C.2       2 UNK         0.4993 
     31 O          22.8919   -5.3197   -3.8340 O.2       2 UNK        -0.5286 
     32 CA         24.7515   -6.3453   -2.7393 C.3       2 UNK         0.0209 
     33 CB         24.8264   -7.7075   -3.4498 C.3       2 UNK        -0.1931 
     34 N          26.0900   -5.9908   -2.2580 N.am      2 UNK        -0.4546 
     35 C          26.3481   -5.1062   -1.2832 C.2       1 UNK         0.5154 
     36 O          25.4760   -4.4496   -0.7132 O.2       1 UNK        -0.5181 
     37 C          27.5061    3.9852   -4.8473 C.2       5 UNK         0.5014 
     38 O          27.4168    5.1986   -4.6459 O.2       5 UNK        -0.5248 
     39 N          27.5609    3.4479   -6.0687 N.am      6 UNK        -0.4434 
     40 CA         27.5047    4.1817   -7.3276 C.3       6 UNK         0.0363 
     41 CB         26.0364    4.2959   -7.7786 C.3       6 UNK        -0.1936 
     42 C          28.3471    3.4550   -8.3804 C.2       6 UNK         0.5081 
     43 O          28.7017    2.2885   -8.1935 O.2       6 UNK        -0.5248 
     44 N          28.6064    4.1446   -9.5004 N.am      7 UNK        -0.4718 
     45 CA         29.3993    3.6668  -10.6424 C.3       7 UNK         0.0273 
     46 CB         29.4906    4.7820  -11.6961 C.3       7 UNK        -0.1935 
     47 C          28.8937    2.3619  -11.2863 C.2       7 UNK         0.5018 
     48 O          29.6888    1.6521  -11.9011 O.2       7 UNK        -0.5186 
     49 N          27.6087    2.0339  -11.0887 N.am      8 UNK        -0.4240 
     50 CA         26.9909    0.7561  -11.4563 C.3       8 UNK         0.0235 
     51 CB         25.4890    0.8129  -11.1326 C.3       8 UNK        -0.2000 
     52 C          27.6383   -0.4702  -10.7805 C.2       8 UNK         0.4941 
     53 O          27.5963   -1.5574  -11.3570 O.2       8 UNK        -0.5273 
     54 N          28.2438   -0.2790   -9.5983 N.am      9 UNK        -0.4262 
     55 CA         29.0096   -1.3018   -8.8815 C.3       9 UNK         0.0264 
     56 CB         28.8547   -1.0679   -7.3708 C.3       9 UNK        -0.1955 
     57 C          30.4994   -1.3255   -9.2767 C.2       9 UNK         0.5031 
     58 O          31.2434   -2.1411   -8.7281 O.2       9 UNK        -0.5390 
     59 N          30.9229   -0.4358  -10.1895 N.am      10 UNK        -0.4204 
     60 CA         32.2807   -0.2032  -10.7017 C.3       10 UNK         0.0237 
     61 CB         32.8533   -1.4522  -11.4012 C.3       10 UNK        -0.1985 
     62 C          33.2623    0.3602   -9.6596 C.2       10 UNK         0.4970 
     63 O          33.9007    1.3775   -9.9315 O.2       10 UNK        -0.4914 
     64 N          33.3663   -0.3057   -8.5035 N.am      11 UNK        -0.4285 
     65 CA         34.2358    0.0322   -7.3627 C.3       11 UNK         0.1007 
     66 C          35.7660   -0.0439   -7.6606 C.2       11 UNK         0.5703 
     67 N          36.2007   -0.7385   -8.7058 N.am      11 UNK        -0.7361 
     68 O          36.5791    0.5011   -6.9173 O.2       11 UNK        -0.4986 
     69 C69        33.8177    1.3541   -6.6528 C.3       12 UNK        -0.0947 
     70 S70        32.1105    1.3006   -6.0114 S.3       12 UNK        -0.2240 
     71 C71        32.4213    0.6061   -4.3589 C.3       12 UNK         0.0194 
     72 H72        30.1533   -8.0378   -1.9163 H         1 UNK         0.0906 
     73 H73        30.2120   -8.7022   -0.2828 H         1 UNK         0.0906 
     74 H74        28.9636   -9.2390   -1.4101 H         1 UNK         0.0906 
     75 H75        29.2987   -5.9582   -1.9638 H         1 UNK         0.3140 
     76 H76        27.8072   -4.8606    0.2343 H         1 UNK         0.1085 
     77 H77        29.4065   -3.4501   -0.9128 H         1 UNK         0.0836 
     78 H78        27.8198   -2.7736   -1.1011 H         1 UNK         0.0836 
     79 H79        27.1334   -1.7886   -3.2192 H         1 UNK         0.0731 
     80 H80        28.0076   -1.8959   -4.7219 H         1 UNK         0.0731 
     81 H81        30.5185   -1.2926   -4.7603 H         1 UNK         0.1312 
     82 H82        31.4572    2.0556   -2.2540 H         1 UNK         0.1406 
     83 H83        27.8731   -0.1981   -1.5687 H         1 UNK         0.1631 
     84 H84        29.9710    2.7789   -0.5500 H         1 UNK         0.0717 
     85 H85        29.3029    1.4035    0.2966 H         1 UNK         0.0717 
     86 H86        27.0460    4.5408   -2.1713 H         1 UNK         0.0934 
     87 H87        28.7459    4.1810   -2.2893 H         1 UNK         0.0934 
     88 H88        28.3527    2.3256   -3.8284 H         1 UNK         0.0739 
     89 H89        25.6073    2.4447   -2.9442 H         1 UNK         0.3093 
     90 H90        24.5544    0.3266   -3.1450 H         1 UNK         0.0818 
     91 H91        23.4388    2.2020   -4.3855 H         1 UNK         0.0819 
     92 H92        23.6613    1.3551   -5.9106 H         1 UNK         0.0819 
     93 H93        22.5842    0.6975   -4.6799 H         1 UNK         0.0819 
     94 H94        25.3404   -0.9238   -5.6862 H         1 UNK         0.3041 
     95 H95        23.5214   -3.5699   -5.5649 H         1 UNK         0.0784 
     96 H96        25.1688   -2.4414   -7.0325 H         1 UNK         0.0793 
     97 H97        26.4927   -2.9590   -5.9880 H         1 UNK         0.0793 
     98 H98        25.5433   -4.1403   -6.8695 H         1 UNK         0.0793 
     99 H99        25.9128   -4.4507   -4.0284 H         1 UNK         0.3024 
    100 H100       24.0937   -6.4485   -1.8729 H         1 UNK         0.1171 
    101 H101       25.4784   -7.6724   -4.3234 H         1 UNK         0.0786 
    102 H102       25.1996   -8.4839   -2.7814 H         1 UNK         0.0786 
    103 H103       23.8402   -8.0249   -3.7920 H         1 UNK         0.0786 
    104 H104       26.8716   -6.4852   -2.6637 H         1 UNK         0.2977 
    105 H105       27.6366    2.4361   -6.1575 H         1 UNK         0.3127 
    106 H106       27.9271    5.1797   -7.1917 H         1 UNK         0.0770 
    107 H107       25.5875    3.3140   -7.9355 H         1 UNK         0.0814 
    108 H108       25.9474    4.8514   -8.7127 H         1 UNK         0.0814 
    109 H109       25.4351    4.8208   -7.0361 H         1 UNK         0.0814 
    110 H110       28.2582    5.0907   -9.5690 H         1 UNK         0.2983 
    111 H111       30.4063    3.4627  -10.2716 H         1 UNK         0.0947 
    112 H112       30.0973    4.4675  -12.5468 H         1 UNK         0.0806 
    113 H113       29.9543    5.6797  -11.2868 H         1 UNK         0.0806 
    114 H114       28.5073    5.0554  -12.0811 H         1 UNK         0.0806 
    115 H115       27.0355    2.6830  -10.5705 H         1 UNK         0.3000 
    116 H116       27.1082    0.6326  -12.5350 H         1 UNK         0.0850 
    117 H117       25.3110    0.9619  -10.0667 H         1 UNK         0.0810 
    118 H118       24.9929   -0.1157  -11.4189 H         1 UNK         0.0810 
    119 H119       24.9954    1.6208  -11.6732 H         1 UNK         0.0810 
    120 H120       28.2520    0.6507   -9.1842 H         1 UNK         0.3040 
    121 H121       28.6001   -2.2880   -9.1097 H         1 UNK         0.0766 
    122 H122       29.3049   -0.1255   -7.0553 H         1 UNK         0.0812 
    123 H123       27.8050   -1.0484   -7.0806 H         1 UNK         0.0812 
    124 H124       29.3345   -1.8659   -6.8035 H         1 UNK         0.0812 
    125 H125       30.2296    0.1923  -10.5822 H         1 UNK         0.3205 
    126 H126       32.1701    0.5672  -11.4666 H         1 UNK         0.0754 
    127 H127       33.8181   -1.2317  -11.8599 H         1 UNK         0.0769 
    128 H128       32.1901   -1.7982  -12.1941 H         1 UNK         0.0769 
    129 H129       33.0064   -2.2805  -10.7089 H         1 UNK         0.0769 
    130 H130       32.7687   -1.1208   -8.3879 H         1 UNK         0.2981 
    131 H131       34.0763   -0.7739   -6.6464 H         1 UNK         0.0541 
    132 H132       37.1910   -0.7930   -8.8846 H         1 UNK         0.3459 
    133 H133       35.5493   -1.2051   -9.3158 H         1 UNK         0.3459 
    134 H134       33.9017    2.1995   -7.3369 H         1 UNK         0.0612 
    135 H135       34.4845    1.5796   -5.8190 H         1 UNK         0.0612 
    136 H136       32.9392   -0.3487   -4.4590 H         1 UNK         0.0624 
    137 H137       33.0941    1.2682   -3.8117 H         1 UNK         0.0624 
@<TRIPOS>BOND
     1    1    2 1    
     2    1   72 1    
     3    1   73 1    
     4    1   74 1    
     5    2    3 2    
     6    2    4 am   BACKBONE|DICT|INTERRES
     7    4    5 1    
     8    4   75 1    
     9    5    6 1    
    10    5   35 1    
    11    5   76 1    
    12    6    7 1    
    13    6   77 1    
    14    6   78 1    
    15    7    8 1    
    16    8    9 1    
    17    8   79 1    
    18    8   80 1    
    19    9   10 ar   
    20    9   14 ar   
    21   10   11 ar   
    22   10   81 1    
    23   11   12 ar   
    24   11   71 1    
    25   12   13 ar   
    26   12   82 1    
    27   13   14 ar   
    28   13   15 1    
    29   14   83 1    
    30   15   16 1    
    31   15   84 1    
    32   15   85 1    
    33   16   17 1    
    34   17   18 1    
    35   17   86 1    
    36   17   87 1    
    37   18   19 1    
    38   18   37 1    
    39   18   88 1    
    40   19   20 am   BACKBONE|DICT|INTERRES
    41   19   89 1    
    42   20   21 2    
    43   20   22 1    
    44   22   23 1    
    45   22   24 1    
    46   22   90 1    
    47   23   91 1    
    48   23   92 1    
    49   23   93 1    
    50   24   25 am   BACKBONE|DICT|INTERRES
    51   24   94 1    
    52   25   26 2    
    53   25   27 1    
    54   27   28 1    
    55   27   29 1    
    56   27   95 1    
    57   28   96 1    
    58   28   97 1    
    59   28   98 1    
    60   29   30 am   BACKBONE|DICT|INTERRES
    61   29   99 1    
    62   30   31 2    
    63   30   32 1    
    64   32   33 1    
    65   32   34 1    
    66   32  100 1    
    67   33  101 1    
    68   33  102 1    
    69   33  103 1    
    70   34   35 am   BACKBONE|DICT|INTERRES
    71   34  104 1    
    72   35   36 2    
    73   37   38 2    
    74   37   39 am   BACKBONE|DICT|INTERRES
    75   39   40 1    
    76   39  105 1    
    77   40   41 1    
    78   40   42 1    
    79   40  106 1    
    80   41  107 1    
    81   41  108 1    
    82   41  109 1    
    83   42   43 2    
    84   42   44 am   BACKBONE|DICT|INTERRES
    85   44   45 1    
    86   44  110 1    
    87   45   46 1    
    88   45   47 1    
    89   45  111 1    
    90   46  112 1    
    91   46  113 1    
    92   46  114 1    
    93   47   48 2    
    94   47   49 am   BACKBONE|DICT|INTERRES
    95   49   50 1    
    96   49  115 1    
    97   50   51 1    
    98   50   52 1    
    99   50  116 1    
   100   51  117 1    
   101   51  118 1    
   102   51  119 1    
   103   52   53 2    
   104   52   54 am   BACKBONE|DICT|INTERRES
   105   54   55 1    
   106   54  120 1    
   107   55   56 1    
   108   55   57 1    
   109   55  121 1    
   110   56  122 1    
   111   56  123 1    
   112   56  124 1    
   113   57   58 2    
   114   57   59 am   BACKBONE|DICT|INTERRES
   115   59   60 1    
   116   59  125 1    
   117   60   61 1    
   118   60   62 1    
   119   60  126 1    
   120   61  127 1    
   121   61  128 1    
   122   61  129 1    
   123   62   63 2    
   124   62   64 am   BACKBONE|DICT|INTERRES
   125   64   65 1    
   126   64  130 1    
   127   65   66 1    
   128   65   69 1    
   129   65  131 1    
   130   66   67 am   BACKBONE|DICT|INTERRES
   131   66   68 2    
   132   67  132 1    
   133   67  133 1    
   134   69   70 1    
   135   69  134 1    
   136   69  135 1    
   137   70   71 1    
   138   71  136 1    
   139   71  137 1    
@<TRIPOS>SUBSTRUCTURE
     1 UNK         1 GROUP             0       ****    0 ROOT    
