@<TRIPOS>MOLECULE
3R137
137   139    1
SMALL
USER_CHARGES


@<TRIPOS>ATOM
      1 CA         28.3342   -0.6168    2.7194 C.3       0 UNK        -0.2020 
      2 C          28.0226   -1.0192    1.2859 C.2       0 UNK         0.4855 
      3 O          27.4863   -0.2122    0.5274 O.2       0 UNK        -0.5197 
      4 N          28.3631   -2.2572    0.9055 N.am      1 UNK        -0.4892 
      5 CA         28.0805   -2.8254   -0.4157 C.3       1 UNK         0.0835 
      6 C6         28.9844   -4.0510   -0.7044 C.3       12 UNK        -0.0855 
      7 S7         29.2115   -4.3739   -2.4907 S.3       12 UNK        -0.2931 
      8 C8         30.9134   -3.7894   -2.7918 C.3       12 UNK         0.0378 
      9 C9         30.9428   -2.3299   -3.2242 C.ar      12 UNK        -0.0802 
     10 C10        31.1682   -1.9979   -4.5629 C.ar      12 UNK        -0.0944 
     11 C11        31.2134   -0.6606   -4.9706 C.ar      12 UNK        -0.0787 
     12 C12        31.0021    0.3485   -4.0265 C.ar      12 UNK        -0.0862 
     13 C13        30.7228    0.0280   -2.6941 C.ar      12 UNK        -0.0733 
     14 C14        30.7384   -1.3104   -2.2921 C.ar      12 UNK        -0.0832 
     15 C15        30.3544    1.1145   -1.6908 C.3       12 UNK         0.0240 
     16 S16        28.9118    2.1168   -2.2037 S.3       12 UNK        -0.2522 
     17 C17        27.7112    0.8864   -2.8369 C.3       12 UNK        -0.0967 
     18 CA         27.5725    0.9777   -4.3817 C.3       5 UNK         0.0660 
     19 N          27.3101   -0.3232   -5.0064 N.am      5 UNK        -0.4015 
     20 C          27.6577   -0.6323   -6.2657 C.2       4 UNK         0.4946 
     21 O          28.2503    0.1411   -7.0167 O.2       4 UNK        -0.5353 
     22 CA         27.2454   -2.0144   -6.8058 C.3       4 UNK         0.0277 
     23 CB         28.3107   -3.0678   -6.4638 C.3       4 UNK        -0.1981 
     24 N          25.9401   -2.4636   -6.3186 N.am      4 UNK        -0.4209 
     25 C          24.7814   -1.8301   -6.5504 C.2       3 UNK         0.4942 
     26 O          24.6815   -0.8404   -7.2737 O.2       3 UNK        -0.5208 
     27 CA         23.5361   -2.3388   -5.7993 C.3       3 UNK         0.0250 
     28 CB         22.7438   -3.3173   -6.6801 C.3       3 UNK        -0.1990 
     29 N          23.8170   -2.9671   -4.5007 N.am      3 UNK        -0.4232 
     30 C          24.4987   -2.4078   -3.4898 C.2       2 UNK         0.4993 
     31 O          25.0047   -1.2833   -3.5530 O.2       2 UNK        -0.5286 
     32 CA         24.7155   -3.2511   -2.2246 C.3       2 UNK         0.0209 
     33 CB         24.4049   -4.7553   -2.3922 C.3       2 UNK        -0.1931 
     34 N          26.1042   -3.0682   -1.8181 N.am      2 UNK        -0.4546 
     35 C          26.5815   -3.1539   -0.5752 C.2       1 UNK         0.5154 
     36 O          25.9058   -3.4850    0.4034 O.2       1 UNK        -0.5181 
     37 C          26.5327    2.0312   -4.8117 C.2       5 UNK         0.5014 
     38 O          26.8707    3.2129   -4.8817 O.2       5 UNK        -0.5248 
     39 N          25.3019    1.5964   -5.1275 N.am      6 UNK        -0.4434 
     40 CA         24.2677    2.4437   -5.7295 C.3       6 UNK         0.0363 
     41 CB         22.9057    1.7328   -5.6838 C.3       6 UNK        -0.1936 
     42 C          24.6322    2.8569   -7.1673 C.2       6 UNK         0.5081 
     43 O          24.4399    4.0179   -7.5293 O.2       6 UNK        -0.5248 
     44 N          25.1793    1.9119   -7.9467 N.am      7 UNK        -0.4718 
     45 CA         25.7564    2.1544   -9.2717 C.3       7 UNK         0.0273 
     46 CB         26.0108    0.8108   -9.9745 C.3       7 UNK        -0.1935 
     47 C          27.0515    2.9831   -9.2046 C.2       7 UNK         0.5018 
     48 O          27.2389    3.8729  -10.0351 O.2       7 UNK        -0.5186 
     49 N          27.9013    2.6750   -8.2124 N.am      8 UNK        -0.4240 
     50 CA         29.1922    3.2981   -7.9024 C.3       8 UNK         0.0235 
     51 CB         29.0025    4.7616   -7.4492 C.3       8 UNK        -0.2000 
     52 C          30.2116    3.1442   -9.0463 C.2       8 UNK         0.4941 
     53 O          30.9111    4.1024   -9.3827 O.2       8 UNK        -0.5273 
     54 N          30.2725    1.9426   -9.6322 N.am      9 UNK        -0.4262 
     55 CA         31.1417    1.6037  -10.7545 C.3       9 UNK         0.0264 
     56 CB         30.4436    1.9708  -12.0768 C.3       9 UNK        -0.1955 
     57 C          31.4724    0.1098  -10.7086 C.2       9 UNK         0.5031 
     58 O          30.6938   -0.6700  -10.1512 O.2       9 UNK        -0.5390 
     59 N          32.6111   -0.2520  -11.3178 N.am      10 UNK        -0.4204 
     60 CA         33.2003   -1.5921  -11.4639 C.3       10 UNK         0.0237 
     61 CB         32.2837   -2.5306  -12.2752 C.3       10 UNK        -0.1985 
     62 C          33.6351   -2.2370  -10.1362 C.2       10 UNK         0.4970 
     63 O          34.8113   -2.5679   -9.9843 O.2       10 UNK        -0.4914 
     64 N          32.6815   -2.3956   -9.2132 N.am      11 UNK        -0.4285 
     65 CA         32.8387   -2.9366   -7.8539 C.3       11 UNK         0.1007 
     66 C          33.2766   -4.4312   -7.7757 C.2       11 UNK         0.5703 
     67 N          33.1488   -5.2132   -8.8411 N.am      11 UNK        -0.7361 
     68 O          33.7021   -4.9038   -6.7243 O.2       11 UNK        -0.4986 
     69 C69        33.6802   -2.0105   -6.9228 C.3       12 UNK        -0.0947 
     70 S70        33.1817   -0.2495   -6.9113 S.3       12 UNK        -0.2240 
     71 C71        31.4244   -0.3005   -6.4360 C.3       12 UNK         0.0194 
     72 H72        28.9897    0.2536    2.7301 H         1 UNK         0.0906 
     73 H73        27.4148   -0.3574    3.2437 H         1 UNK         0.0906 
     74 H74        28.8253   -1.4179    3.2716 H         1 UNK         0.0906 
     75 H75        28.7579   -2.8932    1.5841 H         1 UNK         0.3140 
     76 H76        28.3121   -2.0480   -1.1446 H         1 UNK         0.1085 
     77 H77        28.5854   -4.9514   -0.2324 H         1 UNK         0.0836 
     78 H78        29.9670   -3.9055   -0.2537 H         1 UNK         0.0836 
     79 H79        31.3552   -4.4163   -3.5681 H         1 UNK         0.0731 
     80 H80        31.5366   -3.9325   -1.9082 H         1 UNK         0.0731 
     81 H81        31.3079   -2.7873   -5.2853 H         1 UNK         0.1312 
     82 H82        31.0034    1.3844   -4.3366 H         1 UNK         0.1406 
     83 H83        30.5614   -1.5623   -1.2561 H         1 UNK         0.1631 
     84 H84        31.2111    1.7738   -1.5463 H         1 UNK         0.0717 
     85 H85        30.1335    0.6789   -0.7149 H         1 UNK         0.0717 
     86 H86        28.0407   -0.1083   -2.5391 H         1 UNK         0.0934 
     87 H87        26.7517    1.0258   -2.3343 H         1 UNK         0.0934 
     88 H88        28.5269    1.3244   -4.7821 H         1 UNK         0.0739 
     89 H89        26.7196   -0.9584   -4.4815 H         1 UNK         0.3093 
     90 H90        27.1812   -1.9348   -7.8932 H         1 UNK         0.0818 
     91 H91        29.2777   -2.7887   -6.8822 H         1 UNK         0.0819 
     92 H92        28.0542   -4.0434   -6.8770 H         1 UNK         0.0819 
     93 H93        28.4403   -3.1813   -5.3866 H         1 UNK         0.0819 
     94 H94        25.9275   -3.2812   -5.7271 H         1 UNK         0.3041 
     95 H95        22.9039   -1.4713   -5.6025 H         1 UNK         0.0784 
     96 H96        22.5007   -2.8661   -7.6434 H         1 UNK         0.0793 
     97 H97        23.3079   -4.2292   -6.8805 H         1 UNK         0.0793 
     98 H98        21.8009   -3.6005   -6.2117 H         1 UNK         0.0793 
     99 H99        23.4530   -3.8998   -4.3670 H         1 UNK         0.3024 
    100 H100       24.0606   -2.8360   -1.4550 H         1 UNK         0.1171 
    101 H101       24.6031   -5.3011   -1.4694 H         1 UNK         0.0786 
    102 H102       23.3545   -4.9234   -2.6328 H         1 UNK         0.0786 
    103 H103       25.0105   -5.2111   -3.1768 H         1 UNK         0.0786 
    104 H104       26.7288   -2.7747   -2.5555 H         1 UNK         0.2977 
    105 H105       25.0880    0.6146   -5.0136 H         1 UNK         0.3127 
    106 H106       24.1912    3.3536   -5.1300 H         1 UNK         0.0770 
    107 H107       22.8823    0.8528   -6.3256 H         1 UNK         0.0814 
    108 H108       22.1131    2.3994   -6.0259 H         1 UNK         0.0814 
    109 H109       22.6515    1.4200   -4.6709 H         1 UNK         0.0814 
    110 H110       25.2070    0.9548   -7.6031 H         1 UNK         0.2983 
    111 H111       25.0295    2.7182   -9.8605 H         1 UNK         0.0947 
    112 H112       26.4226    0.9639  -10.9729 H         1 UNK         0.0806 
    113 H113       25.0875    0.2420  -10.0866 H         1 UNK         0.0806 
    114 H114       26.7176    0.1914   -9.4210 H         1 UNK         0.0806 
    115 H115       27.6917    1.8507   -7.6555 H         1 UNK         0.3000 
    116 H116       29.5981    2.7438   -7.0550 H         1 UNK         0.0850 
    117 H117       29.9428    5.1859   -7.0955 H         1 UNK         0.0810 
    118 H118       28.2873    4.8324   -6.6298 H         1 UNK         0.0810 
    119 H119       28.6448    5.3947   -8.2617 H         1 UNK         0.0810 
    120 H120       29.7168    1.1733   -9.2757 H         1 UNK         0.3040 
    121 H121       32.0766    2.1619  -10.6678 H         1 UNK         0.0766 
    122 H122       30.2282    3.0383  -12.1287 H         1 UNK         0.0812 
    123 H123       29.5005    1.4351  -12.1937 H         1 UNK         0.0812 
    124 H124       31.0688    1.7252  -12.9361 H         1 UNK         0.0812 
    125 H125       33.1693    0.4898  -11.7187 H         1 UNK         0.3205 
    126 H126       34.1100   -1.4488  -12.0496 H         1 UNK         0.0754 
    127 H127       32.7636   -3.4962  -12.4401 H         1 UNK         0.0769 
    128 H128       32.0592   -2.1104  -13.2557 H         1 UNK         0.0769 
    129 H129       31.3360   -2.7216  -11.7711 H         1 UNK         0.0769 
    130 H130       31.7630   -2.0233   -9.4426 H         1 UNK         0.2981 
    131 H131       31.8250   -2.9645   -7.4618 H         1 UNK         0.0541 
    132 H132       33.4224   -6.1811   -8.7784 H         1 UNK         0.3459 
    133 H133       32.7898   -4.8434   -9.7061 H         1 UNK         0.3459 
    134 H134       33.6516   -2.3697   -5.8933 H         1 UNK         0.0612 
    135 H135       34.7300   -2.0481   -7.2173 H         1 UNK         0.0612 
    136 H136       30.8731   -0.9802   -7.0839 H         1 UNK         0.0624 
    137 H137       30.9993    0.6843   -6.6330 H         1 UNK         0.0624 
@<TRIPOS>BOND
     1    1    2 1    
     2    1   72 1    
     3    1   73 1    
     4    1   74 1    
     5    2    3 2    
     6    2    4 am   BACKBONE|DICT|INTERRES
     7    4    5 1    
     8    4   75 1    
     9    5    6 1    
    10    5   35 1    
    11    5   76 1    
    12    6    7 1    
    13    6   77 1    
    14    6   78 1    
    15    7    8 1    
    16    8    9 1    
    17    8   79 1    
    18    8   80 1    
    19    9   10 ar   
    20    9   14 ar   
    21   10   11 ar   
    22   10   81 1    
    23   11   12 ar   
    24   11   71 1    
    25   12   13 ar   
    26   12   82 1    
    27   13   14 ar   
    28   13   15 1    
    29   14   83 1    
    30   15   16 1    
    31   15   84 1    
    32   15   85 1    
    33   16   17 1    
    34   17   18 1    
    35   17   86 1    
    36   17   87 1    
    37   18   19 1    
    38   18   37 1    
    39   18   88 1    
    40   19   20 am   BACKBONE|DICT|INTERRES
    41   19   89 1    
    42   20   21 2    
    43   20   22 1    
    44   22   23 1    
    45   22   24 1    
    46   22   90 1    
    47   23   91 1    
    48   23   92 1    
    49   23   93 1    
    50   24   25 am   BACKBONE|DICT|INTERRES
    51   24   94 1    
    52   25   26 2    
    53   25   27 1    
    54   27   28 1    
    55   27   29 1    
    56   27   95 1    
    57   28   96 1    
    58   28   97 1    
    59   28   98 1    
    60   29   30 am   BACKBONE|DICT|INTERRES
    61   29   99 1    
    62   30   31 2    
    63   30   32 1    
    64   32   33 1    
    65   32   34 1    
    66   32  100 1    
    67   33  101 1    
    68   33  102 1    
    69   33  103 1    
    70   34   35 am   BACKBONE|DICT|INTERRES
    71   34  104 1    
    72   35   36 2    
    73   37   38 2    
    74   37   39 am   BACKBONE|DICT|INTERRES
    75   39   40 1    
    76   39  105 1    
    77   40   41 1    
    78   40   42 1    
    79   40  106 1    
    80   41  107 1    
    81   41  108 1    
    82   41  109 1    
    83   42   43 2    
    84   42   44 am   BACKBONE|DICT|INTERRES
    85   44   45 1    
    86   44  110 1    
    87   45   46 1    
    88   45   47 1    
    89   45  111 1    
    90   46  112 1    
    91   46  113 1    
    92   46  114 1    
    93   47   48 2    
    94   47   49 am   BACKBONE|DICT|INTERRES
    95   49   50 1    
    96   49  115 1    
    97   50   51 1    
    98   50   52 1    
    99   50  116 1    
   100   51  117 1    
   101   51  118 1    
   102   51  119 1    
   103   52   53 2    
   104   52   54 am   BACKBONE|DICT|INTERRES
   105   54   55 1    
   106   54  120 1    
   107   55   56 1    
   108   55   57 1    
   109   55  121 1    
   110   56  122 1    
   111   56  123 1    
   112   56  124 1    
   113   57   58 2    
   114   57   59 am   BACKBONE|DICT|INTERRES
   115   59   60 1    
   116   59  125 1    
   117   60   61 1    
   118   60   62 1    
   119   60  126 1    
   120   61  127 1    
   121   61  128 1    
   122   61  129 1    
   123   62   63 2    
   124   62   64 am   BACKBONE|DICT|INTERRES
   125   64   65 1    
   126   64  130 1    
   127   65   66 1    
   128   65   69 1    
   129   65  131 1    
   130   66   67 am   BACKBONE|DICT|INTERRES
   131   66   68 2    
   132   67  132 1    
   133   67  133 1    
   134   69   70 1    
   135   69  134 1    
   136   69  135 1    
   137   70   71 1    
   138   71  136 1    
   139   71  137 1    
@<TRIPOS>SUBSTRUCTURE
     1 UNK         1 GROUP             0       ****    0 ROOT    
