@<TRIPOS>MOLECULE
3R137
137   139    1
SMALL
USER_CHARGES


@<TRIPOS>ATOM
      1 CA         30.5387    0.2114   -1.3496 C.3       0 UNK        -0.2020 
      2 C          29.5892   -0.7188   -0.6115 C.2       0 UNK         0.4855 
      3 O          29.0876   -0.3624    0.4549 O.2       0 UNK        -0.5197 
      4 N          29.3498   -1.9077   -1.1816 N.am      1 UNK        -0.4892 
      5 CA         28.5120   -2.9925   -0.6430 C.3       1 UNK         0.0835 
      6 C6         29.1013   -3.6793    0.6227 C.3       12 UNK        -0.0855 
      7 S7         30.8745   -4.1183    0.5168 S.3       12 UNK        -0.2931 
      8 C8         30.9072   -5.4619   -0.7204 C.3       12 UNK         0.0378 
      9 C9         30.7955   -4.9551   -2.1558 C.ar      12 UNK        -0.0802 
     10 C10        31.6128   -3.9137   -2.6098 C.ar      12 UNK        -0.0944 
     11 C11        31.4933   -3.4298   -3.9153 C.ar      12 UNK        -0.0787 
     12 C12        30.5581   -4.0068   -4.7791 C.ar      12 UNK        -0.0862 
     13 C13        29.7466   -5.0594   -4.3457 C.ar      12 UNK        -0.0733 
     14 C14        29.8761   -5.5349   -3.0363 C.ar      12 UNK        -0.0832 
     15 C15        28.7406   -5.6892   -5.3003 C.3       12 UNK         0.0240 
     16 S16        27.0245   -5.5767   -4.6976 S.3       12 UNK        -0.2522 
     17 C17        26.7536   -3.7765   -4.6437 C.3       12 UNK        -0.0967 
     18 CA         26.2518   -3.2039   -6.0010 C.3       5 UNK         0.0660 
     19 N          24.9855   -2.4815   -5.8591 N.am      5 UNK        -0.4015 
     20 C          24.0995   -2.2790   -6.8442 C.2       4 UNK         0.4946 
     21 O          24.2141   -2.7479   -7.9769 O.2       4 UNK        -0.5353 
     22 CA         22.8676   -1.4131   -6.5163 C.3       4 UNK         0.0277 
     23 CB         21.6556   -2.3050   -6.2007 C.3       4 UNK        -0.1981 
     24 N          23.0839   -0.4847   -5.4022 N.am      4 UNK        -0.4209 
     25 C          23.8588    0.6074   -5.4646 C.2       3 UNK         0.4942 
     26 O          24.4433    0.9743   -6.4828 O.2       3 UNK        -0.5208 
     27 CA         24.0699    1.3809   -4.1503 C.3       3 UNK         0.0250 
     28 CB         22.9163    2.3677   -3.9103 C.3       3 UNK        -0.1990 
     29 N          24.2333    0.5117   -2.9764 N.am      3 UNK        -0.4232 
     30 C          25.1927   -0.4149   -2.8530 C.2       2 UNK         0.4993 
     31 O          26.0276   -0.6529   -3.7321 O.2       2 UNK        -0.5286 
     32 CA         25.1963   -1.2602   -1.5755 C.3       2 UNK         0.0209 
     33 CB         24.0846   -2.3286   -1.6280 C.3       2 UNK        -0.1931 
     34 N          26.5160   -1.8772   -1.4884 N.am      2 UNK        -0.4546 
     35 C          27.0405   -2.5545   -0.4628 C.2       1 UNK         0.5154 
     36 O          26.4276   -2.8105    0.5757 O.2       1 UNK        -0.5181 
     37 C          27.3084   -2.2928   -6.6532 C.2       5 UNK         0.5014 
     38 O          28.0122   -2.7295   -7.5648 O.2       5 UNK        -0.5248 
     39 N          27.3904   -1.0439   -6.1704 N.am      6 UNK        -0.4434 
     40 CA         28.2787   -0.0038   -6.6833 C.3       6 UNK         0.0363 
     41 CB         28.3075    1.1794   -5.7033 C.3       6 UNK        -0.1936 
     42 C          27.8942    0.4644   -8.0934 C.2       6 UNK         0.5081 
     43 O          28.7876    0.6509   -8.9176 O.2       6 UNK        -0.5248 
     44 N          26.5889    0.6403   -8.3501 N.am      7 UNK        -0.4718 
     45 CA         25.9931    1.0515   -9.6266 C.3       7 UNK         0.0273 
     46 CB         26.0440   -0.1206  -10.6328 C.3       7 UNK        -0.1935 
     47 C          26.6142    2.3649  -10.1447 C.2       7 UNK         0.5018 
     48 O          26.5428    3.3780   -9.4463 O.2       7 UNK        -0.5186 
     49 N          27.2612    2.3277  -11.3172 N.am      8 UNK        -0.4240 
     50 CA         28.0109    3.4373  -11.9152 C.3       8 UNK         0.0235 
     51 CB         28.0649    3.2312  -13.4411 C.3       8 UNK        -0.2000 
     52 C          29.4132    3.6099  -11.2878 C.2       8 UNK         0.4941 
     53 O          30.4001    3.7217  -12.0173 O.2       8 UNK        -0.5273 
     54 N          29.4706    3.6271   -9.9477 N.am      9 UNK        -0.4262 
     55 CA         30.6542    3.7901   -9.0934 C.3       9 UNK         0.0264 
     56 CB         31.1896    5.2347   -9.1881 C.3       9 UNK        -0.1955 
     57 C          31.7516    2.7309   -9.3313 C.2       9 UNK         0.5031 
     58 O          32.9399    3.0612   -9.3151 O.2       9 UNK        -0.5390 
     59 N          31.3456    1.4655   -9.5118 N.am      10 UNK        -0.4204 
     60 CA         32.2302    0.3165   -9.7429 C.3       10 UNK         0.0237 
     61 CB         31.3844   -0.9177  -10.0968 C.3       10 UNK        -0.1985 
     62 C          33.1666    0.0033   -8.5619 C.2       10 UNK         0.4970 
     63 O          34.2297   -0.5797   -8.7784 O.2       10 UNK        -0.4914 
     64 N          32.7716    0.4117   -7.3491 N.am      11 UNK        -0.4285 
     65 CA         33.6009    0.3634   -6.1370 C.3       11 UNK         0.1007 
     66 C          34.7584    1.4069   -6.1099 C.2       11 UNK         0.5703 
     67 N          34.8205    2.3741   -7.0198 N.am      11 UNK        -0.7361 
     68 O          35.6272    1.3308   -5.2443 O.2       11 UNK        -0.4986 
     69 C69        32.7458    0.4552   -4.8441 C.3       12 UNK        -0.0947 
     70 S70        31.4198   -0.7916   -4.7389 S.3       12 UNK        -0.2240 
     71 C71        32.3838   -2.2937   -4.3943 C.3       12 UNK         0.0194 
     72 H72        31.4032   -0.3348   -1.7262 H         1 UNK         0.0906 
     73 H73        30.9028    0.9962   -0.6871 H         1 UNK         0.0906 
     74 H74        30.0315    0.6831   -2.1910 H         1 UNK         0.0906 
     75 H75        29.8195   -2.1304   -2.0492 H         1 UNK         0.3140 
     76 H76        28.4671   -3.7492   -1.4249 H         1 UNK         0.1085 
     77 H77        28.5372   -4.5833    0.8596 H         1 UNK         0.0836 
     78 H78        28.9885   -3.0219    1.4869 H         1 UNK         0.0836 
     79 H79        31.8492   -6.0027   -0.6206 H         1 UNK         0.0731 
     80 H80        30.1160   -6.1774   -0.4911 H         1 UNK         0.0731 
     81 H81        32.3353   -3.4715   -1.9371 H         1 UNK         0.1312 
     82 H82        30.4642   -3.6312   -5.7896 H         1 UNK         0.1406 
     83 H83        29.2472   -6.3497   -2.7030 H         1 UNK         0.1631 
     84 H84        28.9959   -6.7408   -5.4373 H         1 UNK         0.0717 
     85 H85        28.7974   -5.2295   -6.2884 H         1 UNK         0.0717 
     86 H86        26.0150   -3.6102   -3.8600 H         1 UNK         0.0934 
     87 H87        27.6541   -3.2791   -4.2775 H         1 UNK         0.0934 
     88 H88        26.0774   -4.0297   -6.6948 H         1 UNK         0.0739 
     89 H89        24.8463   -2.0006   -4.9820 H         1 UNK         0.3093 
     90 H90        22.6367   -0.8258   -7.4080 H         1 UNK         0.0818 
     91 H91        21.4498   -2.9891   -7.0253 H         1 UNK         0.0819 
     92 H92        21.8193   -2.9110   -5.3086 H         1 UNK         0.0819 
     93 H93        20.7550   -1.7109   -6.0441 H         1 UNK         0.0819 
     94 H94        22.6323   -0.7051   -4.5263 H         1 UNK         0.3041 
     95 H95        24.9917    1.9566   -4.2595 H         1 UNK         0.0784 
     96 H96        22.7890    3.0336   -4.7652 H         1 UNK         0.0793 
     97 H97        21.9673    1.8536   -3.7535 H         1 UNK         0.0793 
     98 H98        23.1062    2.9960   -3.0398 H         1 UNK         0.0793 
     99 H99        23.5778    0.6440   -2.2189 H         1 UNK         0.3024 
    100 H100       25.0542   -0.6061   -0.7126 H         1 UNK         0.1171 
    101 H101       24.2022   -3.0000   -2.4785 H         1 UNK         0.0786 
    102 H102       24.0705   -2.9384   -0.7249 H         1 UNK         0.0786 
    103 H103       23.0996   -1.8679   -1.7111 H         1 UNK         0.0786 
    104 H104       27.0996   -1.6662   -2.2896 H         1 UNK         0.2977 
    105 H105       26.8121   -0.7935   -5.3703 H         1 UNK         0.3127 
    106 H106       29.2837   -0.4252   -6.7439 H         1 UNK         0.0770 
    107 H107       28.9870    1.9584   -6.0513 H         1 UNK         0.0814 
    108 H108       27.3213    1.6306   -5.5868 H         1 UNK         0.0814 
    109 H109       28.6502    0.8668   -4.7167 H         1 UNK         0.0814 
    110 H110       25.9295    0.5600   -7.5792 H         1 UNK         0.2983 
    111 H111       24.9441    1.2715   -9.4218 H         1 UNK         0.0947 
    112 H112       27.0661   -0.4235  -10.8640 H         1 UNK         0.0806 
    113 H113       25.5470    0.1365  -11.5692 H         1 UNK         0.0806 
    114 H114       25.5303   -0.9950  -10.2317 H         1 UNK         0.0806 
    115 H115       27.3218    1.4392  -11.7929 H         1 UNK         0.3000 
    116 H116       27.4672    4.3660  -11.7279 H         1 UNK         0.0850 
    117 H117       28.5573    4.0713  -13.9331 H         1 UNK         0.0810 
    118 H118       27.0646    3.1526  -13.8673 H         1 UNK         0.0810 
    119 H119       28.6160    2.3283  -13.7071 H         1 UNK         0.0810 
    120 H120       28.5872    3.5119   -9.4608 H         1 UNK         0.3040 
    121 H121       30.3092    3.6354   -8.0700 H         1 UNK         0.0766 
    122 H122       31.9898    5.4051   -8.4667 H         1 UNK         0.0812 
    123 H123       30.4066    5.9633   -8.9782 H         1 UNK         0.0812 
    124 H124       31.5928    5.4507  -10.1781 H         1 UNK         0.0812 
    125 H125       30.3473    1.2563   -9.4450 H         1 UNK         0.3205 
    126 H126       32.8598    0.5577  -10.6018 H         1 UNK         0.0754 
    127 H127       32.0198   -1.7680  -10.3480 H         1 UNK         0.0769 
    128 H128       30.7427   -0.7265  -10.9572 H         1 UNK         0.0769 
    129 H129       30.7469   -1.2221   -9.2653 H         1 UNK         0.0769 
    130 H130       31.8778    0.8686   -7.2597 H         1 UNK         0.2981 
    131 H131       34.0941   -0.6099   -6.1281 H         1 UNK         0.0541 
    132 H132       35.5827    3.0315   -6.9798 H         1 UNK         0.3459 
    133 H133       34.1272    2.4579   -7.7546 H         1 UNK         0.3459 
    134 H134       32.2782    1.4387   -4.7730 H         1 UNK         0.0612 
    135 H135       33.3738    0.3563   -3.9567 H         1 UNK         0.0612 
    136 H136       33.1499   -2.0687   -3.6506 H         1 UNK         0.0624 
    137 H137       32.9076   -2.6018   -5.3000 H         1 UNK         0.0624 
@<TRIPOS>BOND
     1    1    2 1    
     2    1   72 1    
     3    1   73 1    
     4    1   74 1    
     5    2    3 2    
     6    2    4 am   BACKBONE|DICT|INTERRES
     7    4    5 1    
     8    4   75 1    
     9    5    6 1    
    10    5   35 1    
    11    5   76 1    
    12    6    7 1    
    13    6   77 1    
    14    6   78 1    
    15    7    8 1    
    16    8    9 1    
    17    8   79 1    
    18    8   80 1    
    19    9   10 ar   
    20    9   14 ar   
    21   10   11 ar   
    22   10   81 1    
    23   11   12 ar   
    24   11   71 1    
    25   12   13 ar   
    26   12   82 1    
    27   13   14 ar   
    28   13   15 1    
    29   14   83 1    
    30   15   16 1    
    31   15   84 1    
    32   15   85 1    
    33   16   17 1    
    34   17   18 1    
    35   17   86 1    
    36   17   87 1    
    37   18   19 1    
    38   18   37 1    
    39   18   88 1    
    40   19   20 am   BACKBONE|DICT|INTERRES
    41   19   89 1    
    42   20   21 2    
    43   20   22 1    
    44   22   23 1    
    45   22   24 1    
    46   22   90 1    
    47   23   91 1    
    48   23   92 1    
    49   23   93 1    
    50   24   25 am   BACKBONE|DICT|INTERRES
    51   24   94 1    
    52   25   26 2    
    53   25   27 1    
    54   27   28 1    
    55   27   29 1    
    56   27   95 1    
    57   28   96 1    
    58   28   97 1    
    59   28   98 1    
    60   29   30 am   BACKBONE|DICT|INTERRES
    61   29   99 1    
    62   30   31 2    
    63   30   32 1    
    64   32   33 1    
    65   32   34 1    
    66   32  100 1    
    67   33  101 1    
    68   33  102 1    
    69   33  103 1    
    70   34   35 am   BACKBONE|DICT|INTERRES
    71   34  104 1    
    72   35   36 2    
    73   37   38 2    
    74   37   39 am   BACKBONE|DICT|INTERRES
    75   39   40 1    
    76   39  105 1    
    77   40   41 1    
    78   40   42 1    
    79   40  106 1    
    80   41  107 1    
    81   41  108 1    
    82   41  109 1    
    83   42   43 2    
    84   42   44 am   BACKBONE|DICT|INTERRES
    85   44   45 1    
    86   44  110 1    
    87   45   46 1    
    88   45   47 1    
    89   45  111 1    
    90   46  112 1    
    91   46  113 1    
    92   46  114 1    
    93   47   48 2    
    94   47   49 am   BACKBONE|DICT|INTERRES
    95   49   50 1    
    96   49  115 1    
    97   50   51 1    
    98   50   52 1    
    99   50  116 1    
   100   51  117 1    
   101   51  118 1    
   102   51  119 1    
   103   52   53 2    
   104   52   54 am   BACKBONE|DICT|INTERRES
   105   54   55 1    
   106   54  120 1    
   107   55   56 1    
   108   55   57 1    
   109   55  121 1    
   110   56  122 1    
   111   56  123 1    
   112   56  124 1    
   113   57   58 2    
   114   57   59 am   BACKBONE|DICT|INTERRES
   115   59   60 1    
   116   59  125 1    
   117   60   61 1    
   118   60   62 1    
   119   60  126 1    
   120   61  127 1    
   121   61  128 1    
   122   61  129 1    
   123   62   63 2    
   124   62   64 am   BACKBONE|DICT|INTERRES
   125   64   65 1    
   126   64  130 1    
   127   65   66 1    
   128   65   69 1    
   129   65  131 1    
   130   66   67 am   BACKBONE|DICT|INTERRES
   131   66   68 2    
   132   67  132 1    
   133   67  133 1    
   134   69   70 1    
   135   69  134 1    
   136   69  135 1    
   137   70   71 1    
   138   71  136 1    
   139   71  137 1    
@<TRIPOS>SUBSTRUCTURE
     1 UNK         1 GROUP             0       ****    0 ROOT    
