@<TRIPOS>MOLECULE
3R137
137   139    1
SMALL
USER_CHARGES


@<TRIPOS>ATOM
      1 CA         25.3590    0.0303   -0.5211 C.3       0 UNK        -0.2020 
      2 C          26.1260   -0.8764   -1.4694 C.2       0 UNK         0.4855 
      3 O          26.0946   -0.6554   -2.6811 O.2       0 UNK        -0.5197 
      4 N          26.8172   -1.8925   -0.9345 N.am      1 UNK        -0.4892 
      5 CA         27.6353   -2.8526   -1.6913 C.3       1 UNK         0.0835 
      6 C6         28.4587   -3.7861   -0.7700 C.3       12 UNK        -0.0855 
      7 S7         29.5445   -2.8637    0.3728 S.3       12 UNK        -0.2931 
      8 C8         31.1803   -3.0658   -0.4048 C.3       12 UNK         0.0378 
      9 C9         31.2734   -2.3254   -1.7309 C.ar      12 UNK        -0.0802 
     10 C10        31.2449   -3.0298   -2.9383 C.ar      12 UNK        -0.0944 
     11 C11        31.3257   -2.3512   -4.1577 C.ar      12 UNK        -0.0787 
     12 C12        31.4103   -0.9564   -4.1652 C.ar      12 UNK        -0.0862 
     13 C13        31.4516   -0.2414   -2.9642 C.ar      12 UNK        -0.0733 
     14 C14        31.3952   -0.9328   -1.7498 C.ar      12 UNK        -0.0832 
     15 C15        31.5492    1.2789   -2.9854 C.3       12 UNK         0.0240 
     16 S16        30.1346    2.1127   -2.1839 S.3       12 UNK        -0.2522 
     17 C17        28.6924    1.1681   -2.7807 C.3       12 UNK        -0.0967 
     18 CA         28.4136    1.3334   -4.2956 C.3       5 UNK         0.0660 
     19 N          27.8136    0.1285   -4.8761 N.am      5 UNK        -0.4015 
     20 C          27.8186   -0.1525   -6.1876 C.2       4 UNK         0.4946 
     21 O          28.3794    0.5487   -7.0282 O.2       4 UNK        -0.5353 
     22 CA         27.0371   -1.3891   -6.6604 C.3       4 UNK         0.0277 
     23 CB         27.9597   -2.6108   -6.7610 C.3       4 UNK        -0.1981 
     24 N          25.8834   -1.7041   -5.8144 N.am      4 UNK        -0.4209 
     25 C          24.7788   -0.9466   -5.7471 C.2       3 UNK         0.4942 
     26 O          24.6558    0.1061   -6.3734 O.2       3 UNK        -0.5208 
     27 CA         23.6367   -1.3730   -4.8055 C.3       3 UNK         0.0250 
     28 CB         22.3116   -1.5716   -5.5691 C.3       3 UNK        -0.1990 
     29 N          23.9479   -2.5133   -3.9342 N.am      3 UNK        -0.4232 
     30 C          24.0755   -3.8125   -4.2431 C.2       2 UNK         0.4993 
     31 O          23.8901   -4.2810   -5.3666 O.2       2 UNK        -0.5286 
     32 CA         24.5398   -4.7208   -3.0845 C.3       2 UNK         0.0209 
     33 CB         24.9815   -6.1245   -3.5536 C.3       2 UNK        -0.1931 
     34 N          25.5848   -4.0814   -2.2670 N.am      2 UNK        -0.4546 
     35 C          26.7949   -3.6751   -2.6880 C.2       1 UNK         0.5154 
     36 O          27.2263   -3.8684   -3.8228 O.2       1 UNK        -0.5181 
     37 C          27.5464    2.5732   -4.5810 C.2       5 UNK         0.5014 
     38 O          28.0897    3.6371   -4.8782 O.2       5 UNK        -0.5248 
     39 N          26.2159    2.4047   -4.5208 N.am      6 UNK        -0.4434 
     40 CA         25.2318    3.4372   -4.8557 C.3       6 UNK         0.0363 
     41 CB         23.8315    2.9837   -4.4112 C.3       6 UNK        -0.1936 
     42 C          25.2487    3.7942   -6.3521 C.2       6 UNK         0.5081 
     43 O          25.1824    4.9746   -6.6954 O.2       6 UNK        -0.5248 
     44 N          25.3693    2.7726   -7.2113 N.am      7 UNK        -0.4718 
     45 CA         25.5332    2.9174   -8.6602 C.3       7 UNK         0.0273 
     46 CB         25.2498    1.5627   -9.3299 C.3       7 UNK        -0.1935 
     47 C          26.9270    3.4263   -9.0737 C.2       7 UNK         0.5018 
     48 O          27.0565    3.9686  -10.1718 O.2       7 UNK        -0.5186 
     49 N          27.9308    3.2194   -8.2063 N.am      8 UNK        -0.4240 
     50 CA         29.3674    3.4373   -8.4169 C.3       8 UNK         0.0235 
     51 CB         29.6865    4.9390   -8.5755 C.3       8 UNK        -0.2000 
     52 C          29.8927    2.5693   -9.5762 C.2       8 UNK         0.4941 
     53 O          30.4801    3.0887  -10.5282 O.2       8 UNK        -0.5273 
     54 N          29.6184    1.2633   -9.4873 N.am      9 UNK        -0.4262 
     55 CA         29.8503    0.2717  -10.5336 C.3       9 UNK         0.0264 
     56 CB         28.4879   -0.0933  -11.1526 C.3       9 UNK        -0.1955 
     57 C          30.5379   -0.9749   -9.9609 C.2       9 UNK         0.5031 
     58 O          30.6342   -1.1287   -8.7407 O.2       9 UNK        -0.5390 
     59 N          30.9775   -1.8558  -10.8713 N.am      10 UNK        -0.4204 
     60 CA         31.5911   -3.1752  -10.6619 C.3       10 UNK         0.0237 
     61 CB         30.6297   -4.1364   -9.9316 C.3       10 UNK        -0.1985 
     62 C          32.9691   -3.1370   -9.9799 C.2       10 UNK         0.4970 
     63 O          33.9443   -3.6128  -10.5629 O.2       10 UNK        -0.4914 
     64 N          33.0189   -2.5948   -8.7621 N.am      11 UNK        -0.4285 
     65 CA         34.2267   -2.4608   -7.9411 C.3       11 UNK         0.1007 
     66 C          35.1229   -1.2822   -8.4072 C.2       11 UNK         0.5703 
     67 N          36.4217   -1.3555   -8.1492 N.am      11 UNK        -0.7361 
     68 O          34.6554   -0.2925   -8.9685 O.2       11 UNK        -0.4986 
     69 C69        33.8718   -2.3399   -6.4378 C.3       12 UNK        -0.0947 
     70 S70        32.9795   -3.8106   -5.8234 S.3       12 UNK        -0.2240 
     71 C71        31.3302   -3.1308   -5.4637 C.3       12 UNK         0.0194 
     72 H72        25.4718   -0.2771    0.5184 H         1 UNK         0.0906 
     73 H73        25.7167    1.0553   -0.6131 H         1 UNK         0.0906 
     74 H74        24.2977    0.0173   -0.7672 H         1 UNK         0.0906 
     75 H75        26.8373   -2.0071    0.0695 H         1 UNK         0.3140 
     76 H76        28.3402   -2.2708   -2.2894 H         1 UNK         0.1085 
     77 H77        29.0641   -4.4747   -1.3628 H         1 UNK         0.0836 
     78 H78        27.7958   -4.4121   -0.1695 H         1 UNK         0.0836 
     79 H79        31.3950   -4.1280   -0.5334 H         1 UNK         0.0731 
     80 H80        31.9429   -2.6828    0.2749 H         1 UNK         0.0731 
     81 H81        31.1691   -4.1086   -2.9328 H         1 UNK         0.1312 
     82 H82        31.4519   -0.4287   -5.1084 H         1 UNK         0.1406 
     83 H83        31.4184   -0.3831   -0.8183 H         1 UNK         0.1631 
     84 H84        31.6347    1.6458   -4.0092 H         1 UNK         0.0717 
     85 H85        32.4667    1.5826   -2.4797 H         1 UNK         0.0717 
     86 H86        28.8560    0.1194   -2.5338 H         1 UNK         0.0934 
     87 H87        27.8279    1.4617   -2.1829 H         1 UNK         0.0934 
     88 H88        29.3657    1.4846   -4.8076 H         1 UNK         0.0739 
     89 H89        27.2750   -0.4551   -4.2427 H         1 UNK         0.3093 
     90 H90        26.6614   -1.1742   -7.6629 H         1 UNK         0.0818 
     91 H91        28.7408   -2.4440   -7.5019 H         1 UNK         0.0819 
     92 H92        28.4525   -2.8193   -5.8124 H         1 UNK         0.0819 
     93 H93        27.4132   -3.5045   -7.0622 H         1 UNK         0.0819 
     94 H94        25.9418   -2.5442   -5.2527 H         1 UNK         0.3041 
     95 H95        23.4936   -0.5300   -4.1278 H         1 UNK         0.0784 
     96 H96        22.0199   -0.6553   -6.0842 H         1 UNK         0.0793 
     97 H97        22.3891   -2.3527   -6.3256 H         1 UNK         0.0793 
     98 H98        21.4984   -1.8353   -4.8932 H         1 UNK         0.0793 
     99 H99        24.1939   -2.2495   -2.9902 H         1 UNK         0.3024 
    100 H100       23.6702   -4.8511   -2.4378 H         1 UNK         0.1171 
    101 H101       25.2973   -6.7424   -2.7131 H         1 UNK         0.0786 
    102 H102       24.1608   -6.6459   -4.0477 H         1 UNK         0.0786 
    103 H103       25.8073   -6.0767   -4.2640 H         1 UNK         0.0786 
    104 H104       25.3266   -3.8601   -1.3147 H         1 UNK         0.2977 
    105 H105       25.8560    1.4920   -4.2789 H         1 UNK         0.3127 
    106 H106       25.4900    4.3391   -4.2964 H         1 UNK         0.0770 
    107 H107       23.5076    2.0849   -4.9365 H         1 UNK         0.0814 
    108 H108       23.0918    3.7598   -4.6118 H         1 UNK         0.0814 
    109 H109       23.8013    2.7772   -3.3413 H         1 UNK         0.0814 
    110 H110       25.3185    1.8221   -6.8507 H         1 UNK         0.2983 
    111 H111       24.7980    3.6411   -9.0190 H         1 UNK         0.0947 
    112 H112       25.9603    0.8007   -9.0078 H         1 UNK         0.0806 
    113 H113       25.3230    1.6390  -10.4157 H         1 UNK         0.0806 
    114 H114       24.2469    1.2052   -9.0956 H         1 UNK         0.0806 
    115 H115       27.7010    2.7149   -7.3602 H         1 UNK         0.3000 
    116 H116       29.8675    3.0856   -7.5129 H         1 UNK         0.0850 
    117 H117       29.3153    5.5124   -7.7260 H         1 UNK         0.0810 
    118 H118       29.2460    5.3570   -9.4811 H         1 UNK         0.0810 
    119 H119       30.7631    5.1028   -8.6333 H         1 UNK         0.0810 
    120 H120       29.2075    0.9041   -8.6243 H         1 UNK         0.3040 
    121 H121       30.5005    0.6833  -11.3085 H         1 UNK         0.0766 
    122 H122       28.5972   -0.7977  -11.9777 H         1 UNK         0.0812 
    123 H123       27.9856    0.7898  -11.5487 H         1 UNK         0.0812 
    124 H124       27.8243   -0.5505  -10.4171 H         1 UNK         0.0812 
    125 H125       30.8734   -1.5979  -11.8433 H         1 UNK         0.3205 
    126 H126       31.7524   -3.5832  -11.6612 H         1 UNK         0.0754 
    127 H127       31.0606   -5.1358   -9.8594 H         1 UNK         0.0769 
    128 H128       29.6833   -4.2294  -10.4645 H         1 UNK         0.0769 
    129 H129       30.4090   -3.8074   -8.9158 H         1 UNK         0.0769 
    130 H130       32.1772   -2.1380   -8.4209 H         1 UNK         0.2981 
    131 H131       34.8104   -3.3750   -8.0687 H         1 UNK         0.0541 
    132 H132       37.0204   -0.5956   -8.4325 H         1 UNK         0.3459 
    133 H133       36.8167   -2.1563   -7.6809 H         1 UNK         0.3459 
    134 H134       34.7772   -2.2361   -5.8373 H         1 UNK         0.0612 
    135 H135       33.2842   -1.4391   -6.2588 H         1 UNK         0.0612 
    136 H136       31.0009   -2.5052   -6.2947 H         1 UNK         0.0624 
    137 H137       30.6188   -3.9552   -5.3981 H         1 UNK         0.0624 
@<TRIPOS>BOND
     1    1    2 1    
     2    1   72 1    
     3    1   73 1    
     4    1   74 1    
     5    2    3 2    
     6    2    4 am   BACKBONE|DICT|INTERRES
     7    4    5 1    
     8    4   75 1    
     9    5    6 1    
    10    5   35 1    
    11    5   76 1    
    12    6    7 1    
    13    6   77 1    
    14    6   78 1    
    15    7    8 1    
    16    8    9 1    
    17    8   79 1    
    18    8   80 1    
    19    9   10 ar   
    20    9   14 ar   
    21   10   11 ar   
    22   10   81 1    
    23   11   12 ar   
    24   11   71 1    
    25   12   13 ar   
    26   12   82 1    
    27   13   14 ar   
    28   13   15 1    
    29   14   83 1    
    30   15   16 1    
    31   15   84 1    
    32   15   85 1    
    33   16   17 1    
    34   17   18 1    
    35   17   86 1    
    36   17   87 1    
    37   18   19 1    
    38   18   37 1    
    39   18   88 1    
    40   19   20 am   BACKBONE|DICT|INTERRES
    41   19   89 1    
    42   20   21 2    
    43   20   22 1    
    44   22   23 1    
    45   22   24 1    
    46   22   90 1    
    47   23   91 1    
    48   23   92 1    
    49   23   93 1    
    50   24   25 am   BACKBONE|DICT|INTERRES
    51   24   94 1    
    52   25   26 2    
    53   25   27 1    
    54   27   28 1    
    55   27   29 1    
    56   27   95 1    
    57   28   96 1    
    58   28   97 1    
    59   28   98 1    
    60   29   30 am   BACKBONE|DICT|INTERRES
    61   29   99 1    
    62   30   31 2    
    63   30   32 1    
    64   32   33 1    
    65   32   34 1    
    66   32  100 1    
    67   33  101 1    
    68   33  102 1    
    69   33  103 1    
    70   34   35 am   BACKBONE|DICT|INTERRES
    71   34  104 1    
    72   35   36 2    
    73   37   38 2    
    74   37   39 am   BACKBONE|DICT|INTERRES
    75   39   40 1    
    76   39  105 1    
    77   40   41 1    
    78   40   42 1    
    79   40  106 1    
    80   41  107 1    
    81   41  108 1    
    82   41  109 1    
    83   42   43 2    
    84   42   44 am   BACKBONE|DICT|INTERRES
    85   44   45 1    
    86   44  110 1    
    87   45   46 1    
    88   45   47 1    
    89   45  111 1    
    90   46  112 1    
    91   46  113 1    
    92   46  114 1    
    93   47   48 2    
    94   47   49 am   BACKBONE|DICT|INTERRES
    95   49   50 1    
    96   49  115 1    
    97   50   51 1    
    98   50   52 1    
    99   50  116 1    
   100   51  117 1    
   101   51  118 1    
   102   51  119 1    
   103   52   53 2    
   104   52   54 am   BACKBONE|DICT|INTERRES
   105   54   55 1    
   106   54  120 1    
   107   55   56 1    
   108   55   57 1    
   109   55  121 1    
   110   56  122 1    
   111   56  123 1    
   112   56  124 1    
   113   57   58 2    
   114   57   59 am   BACKBONE|DICT|INTERRES
   115   59   60 1    
   116   59  125 1    
   117   60   61 1    
   118   60   62 1    
   119   60  126 1    
   120   61  127 1    
   121   61  128 1    
   122   61  129 1    
   123   62   63 2    
   124   62   64 am   BACKBONE|DICT|INTERRES
   125   64   65 1    
   126   64  130 1    
   127   65   66 1    
   128   65   69 1    
   129   65  131 1    
   130   66   67 am   BACKBONE|DICT|INTERRES
   131   66   68 2    
   132   67  132 1    
   133   67  133 1    
   134   69   70 1    
   135   69  134 1    
   136   69  135 1    
   137   70   71 1    
   138   71  136 1    
   139   71  137 1    
@<TRIPOS>SUBSTRUCTURE
     1 UNK         1 GROUP             0       ****    0 ROOT    
