@<TRIPOS>MOLECULE
3R137
137   139    1
SMALL
USER_CHARGES


@<TRIPOS>ATOM
      1 CA         30.6144    1.2334   -0.3245 C.3       0 UNK        -0.2020 
      2 C          30.2651   -0.0445   -1.0718 C.2       0 UNK         0.4855 
      3 O          30.7760   -0.2660   -2.1657 O.2       0 UNK        -0.5197 
      4 N          29.3960   -0.8777   -0.4930 N.am      1 UNK        -0.4892 
      5 CA         28.8709   -2.1137   -1.0814 C.3       1 UNK         0.0835 
      6 C6         29.4603   -3.3807   -0.4097 C.3       12 UNK        -0.0855 
      7 S7         31.2758   -3.4875   -0.5935 S.3       12 UNK        -0.2931 
      8 C8         31.4855   -4.8277   -1.8065 C.3       12 UNK         0.0378 
      9 C9         30.9213   -4.4825   -3.1790 C.ar      12 UNK        -0.0802 
     10 C10        31.6264   -3.6420   -4.0483 C.ar      12 UNK        -0.0944 
     11 C11        31.1440   -3.3786   -5.3401 C.ar      12 UNK        -0.0787 
     12 C12        29.9441   -3.9718   -5.7442 C.ar      12 UNK        -0.0862 
     13 C13        29.2275   -4.8088   -4.8842 C.ar      12 UNK        -0.0733 
     14 C14        29.7186   -5.0542   -3.6003 C.ar      12 UNK        -0.0832 
     15 C15        27.9483   -5.4886   -5.3487 C.3       12 UNK         0.0240 
     16 S16        26.5685   -4.3148   -5.4941 S.3       12 UNK        -0.2522 
     17 C17        26.5872   -3.9380   -7.2779 C.3       12 UNK        -0.0967 
     18 CA         26.3340   -2.4527   -7.6221 C.3       5 UNK         0.0660 
     19 N          25.0618   -1.9468   -7.1021 N.am      5 UNK        -0.4015 
     20 C          24.4373   -0.8699   -7.5965 C.2       4 UNK         0.4946 
     21 O          24.9072   -0.1660   -8.4924 O.2       4 UNK        -0.5353 
     22 CA         23.0737   -0.5165   -6.9825 C.3       4 UNK         0.0277 
     23 CB         22.0308   -1.6112   -7.2661 C.3       4 UNK        -0.1981 
     24 N          23.1672   -0.2785   -5.5420 N.am      4 UNK        -0.4209 
     25 C          23.7458    0.8003   -4.9975 C.2       3 UNK         0.4942 
     26 O          24.2053    1.7350   -5.6528 O.2       3 UNK        -0.5208 
     27 CA         23.8331    0.8590   -3.4615 C.3       3 UNK         0.0250 
     28 CB         22.6068    1.5875   -2.8872 C.3       3 UNK        -0.1990 
     29 N          24.0026   -0.4247   -2.7652 N.am      3 UNK        -0.4232 
     30 C          24.9565   -1.3311   -3.0174 C.2       2 UNK         0.4993 
     31 O          25.6812   -1.3119   -4.0141 O.2       2 UNK        -0.5286 
     32 CA         25.1514   -2.4422   -1.9769 C.3       2 UNK         0.0209 
     33 CB         24.4394   -3.7371   -2.3971 C.3       2 UNK        -0.1931 
     34 N          26.5921   -2.6766   -1.8359 N.am      2 UNK        -0.4546 
     35 C          27.3414   -2.0531   -0.9175 C.2       1 UNK         0.5154 
     36 O          26.8635   -1.4284    0.0361 O.2       1 UNK        -0.5181 
     37 C          27.5266   -1.5348   -7.2920 C.2       5 UNK         0.5014 
     38 O          28.4376   -1.4453   -8.1134 O.2       5 UNK        -0.5248 
     39 N          27.4723   -0.8295   -6.1517 N.am      6 UNK        -0.4434 
     40 CA         28.4396    0.1967   -5.7489 C.3       6 UNK         0.0363 
     41 CB         28.2622    0.4983   -4.2537 C.3       6 UNK        -0.1936 
     42 C          28.3504    1.5001   -6.5663 C.2       6 UNK         0.5081 
     43 O          29.2588    2.3281   -6.4628 O.2       6 UNK        -0.5248 
     44 N          27.2716    1.6737   -7.3434 N.am      7 UNK        -0.4718 
     45 CA         27.1344    2.7343   -8.3398 C.3       7 UNK         0.0273 
     46 CB         25.6938    3.2697   -8.3364 C.3       7 UNK        -0.1935 
     47 C          27.5258    2.2255   -9.7357 C.2       7 UNK         0.5018 
     48 O          28.1748    2.9646  -10.4768 O.2       7 UNK        -0.5186 
     49 N          27.1277    0.9877  -10.0758 N.am      8 UNK        -0.4240 
     50 CA         27.4227    0.3349  -11.3576 C.3       8 UNK         0.0235 
     51 CB         26.6429   -0.9850  -11.4646 C.3       8 UNK        -0.2000 
     52 C          28.9257    0.0971  -11.5865 C.2       8 UNK         0.4941 
     53 O          29.4221    0.3828  -12.6773 O.2       8 UNK        -0.5273 
     54 N          29.6203   -0.3883  -10.5520 N.am      9 UNK        -0.4262 
     55 CA         31.0761   -0.4219  -10.4548 C.3       9 UNK         0.0264 
     56 CB         31.5318   -1.8522  -10.1258 C.3       9 UNK        -0.1955 
     57 C          31.4402    0.5458   -9.3271 C.2       9 UNK         0.5031 
     58 O          30.8147    0.4807   -8.2711 O.2       9 UNK        -0.5390 
     59 N          32.4094    1.4384   -9.5609 N.am      10 UNK        -0.4204 
     60 CA         32.7153    2.6056   -8.7208 C.3       10 UNK         0.0237 
     61 CB         33.5510    3.6000   -9.5506 C.3       10 UNK        -0.1985 
     62 C          33.3554    2.2951   -7.3472 C.2       10 UNK         0.4970 
     63 O          34.3760    2.8931   -6.9994 O.2       10 UNK        -0.4914 
     64 N          32.7435    1.3876   -6.5815 N.am      11 UNK        -0.4285 
     65 CA         33.0866    1.0971   -5.1827 C.3       11 UNK         0.1007 
     66 C          32.5459    2.1651   -4.1904 C.2       11 UNK         0.5703 
     67 N          31.4641    2.8735   -4.5000 N.am      11 UNK        -0.7361 
     68 O          33.1372    2.3756   -3.1339 O.2       11 UNK        -0.4986 
     69 C69        32.6507   -0.3243   -4.7484 C.3       12 UNK        -0.0947 
     70 S70        33.3798   -1.6455   -5.7703 S.3       12 UNK        -0.2240 
     71 C71        31.8808   -2.5039   -6.3606 C.3       12 UNK         0.0194 
     72 H72        31.6876    1.2755   -0.1398 H         1 UNK         0.0906 
     73 H73        30.3395    2.1020   -0.9224 H         1 UNK         0.0906 
     74 H74        30.1004    1.3013    0.6341 H         1 UNK         0.0906 
     75 H75        28.9374   -0.6143    0.3699 H         1 UNK         0.3140 
     76 H76        29.0943   -2.1464   -2.1506 H         1 UNK         0.1085 
     77 H77        29.0017   -4.2827   -0.8179 H         1 UNK         0.0836 
     78 H78        29.2322   -3.3861    0.6580 H         1 UNK         0.0836 
     79 H79        32.5504   -5.0445   -1.9035 H         1 UNK         0.0731 
     80 H80        31.0293   -5.7389   -1.4163 H         1 UNK         0.0731 
     81 H81        32.5575   -3.2121   -3.7091 H         1 UNK         0.1312 
     82 H82        29.5734   -3.7865   -6.7424 H         1 UNK         0.1406 
     83 H83        29.1781   -5.7157   -2.9368 H         1 UNK         0.1631 
     84 H84        27.6549   -6.2662   -4.6418 H         1 UNK         0.0717 
     85 H85        28.1209   -6.0016   -6.2958 H         1 UNK         0.0717 
     86 H86        27.5241   -4.2684   -7.7286 H         1 UNK         0.0934 
     87 H87        25.8155   -4.5510   -7.7463 H         1 UNK         0.0934 
     88 H88        26.2422   -2.4237   -8.7090 H         1 UNK         0.0739 
     89 H89        24.6678   -2.4419   -6.3152 H         1 UNK         0.3093 
     90 H90        22.7289    0.4039   -7.4595 H         1 UNK         0.0818 
     91 H91        21.0400   -1.3082   -6.9270 H         1 UNK         0.0819 
     92 H92        21.9569   -1.8104   -8.3362 H         1 UNK         0.0819 
     93 H93        22.2772   -2.5534   -6.7752 H         1 UNK         0.0819 
     94 H94        22.8205   -0.9984   -4.9254 H         1 UNK         0.3041 
     95 H95        24.7169    1.4557   -3.2263 H         1 UNK         0.0784 
     96 H96        22.4668    2.5573   -3.3674 H         1 UNK         0.0793 
     97 H97        21.6907    1.0147   -3.0372 H         1 UNK         0.0793 
     98 H98        22.7173    1.7729   -1.8186 H         1 UNK         0.0793 
     99 H99        23.4357   -0.5495   -1.9385 H         1 UNK         0.3024 
    100 H100       24.7253   -2.1197   -1.0239 H         1 UNK         0.1171 
    101 H101       23.3594   -3.5902   -2.4371 H         1 UNK         0.0786 
    102 H102       24.6304   -4.5417   -1.6870 H         1 UNK         0.0786 
    103 H103       24.7528   -4.0795   -3.3807 H         1 UNK         0.0786 
    104 H104       27.0410   -3.1187   -2.6267 H         1 UNK         0.2977 
    105 H105       26.7098   -1.0077   -5.4978 H         1 UNK         0.3127 
    106 H106       29.4405   -0.2109   -5.9007 H         1 UNK         0.0770 
    107 H107       27.2884    0.9425   -4.0450 H         1 UNK         0.0814 
    108 H108       29.0243    1.1949   -3.9024 H         1 UNK         0.0814 
    109 H109       28.3540   -0.4079   -3.6570 H         1 UNK         0.0814 
    110 H110       26.5523    0.9624   -7.3384 H         1 UNK         0.2983 
    111 H111       27.7989    3.5654   -8.0926 H         1 UNK         0.0947 
    112 H112       25.5731    4.0693   -9.0684 H         1 UNK         0.0806 
    113 H113       25.4288    3.6791   -7.3614 H         1 UNK         0.0806 
    114 H114       24.9673    2.4934   -8.5775 H         1 UNK         0.0806 
    115 H115       26.5287    0.4792   -9.4328 H         1 UNK         0.3000 
    116 H116       27.0688    1.0011  -12.1472 H         1 UNK         0.0850 
    117 H117       26.7521   -1.4187  -12.4594 H         1 UNK         0.0810 
    118 H118       25.5770   -0.8368  -11.2894 H         1 UNK         0.0810 
    119 H119       27.0042   -1.7240  -10.7502 H         1 UNK         0.0810 
    120 H120       29.1392   -0.5723   -9.6718 H         1 UNK         0.3040 
    121 H121       31.5463   -0.0972  -11.3853 H         1 UNK         0.0766 
    122 H122       32.6086   -1.8939   -9.9576 H         1 UNK         0.0812 
    123 H123       31.3004   -2.5358  -10.9426 H         1 UNK         0.0812 
    124 H124       31.0419   -2.2312   -9.2283 H         1 UNK         0.0812 
    125 H125       32.9065    1.3853  -10.4384 H         1 UNK         0.3205 
    126 H126       31.7647    3.0955   -8.4969 H         1 UNK         0.0754 
    127 H127       33.7331    4.5213   -8.9954 H         1 UNK         0.0769 
    128 H128       33.0377    3.8808  -10.4706 H         1 UNK         0.0769 
    129 H129       34.5222    3.1830   -9.8199 H         1 UNK         0.0769 
    130 H130       31.9082    0.9425   -6.9604 H         1 UNK         0.2981 
    131 H131       34.1747    1.1303   -5.0994 H         1 UNK         0.0541 
    132 H132       30.9283    2.6792   -5.3391 H         1 UNK         0.3459 
    133 H133       31.1383    3.5725   -3.8532 H         1 UNK         0.3459 
    134 H134       31.5629   -0.4069   -4.7617 H         1 UNK         0.0612 
    135 H135       32.9558   -0.5136   -3.7178 H         1 UNK         0.0612 
    136 H136       31.1899   -1.7633   -6.7658 H         1 UNK         0.0624 
    137 H137       32.1755   -3.1382   -7.1973 H         1 UNK         0.0624 
@<TRIPOS>BOND
     1    1    2 1    
     2    1   72 1    
     3    1   73 1    
     4    1   74 1    
     5    2    3 2    
     6    2    4 am   BACKBONE|DICT|INTERRES
     7    4    5 1    
     8    4   75 1    
     9    5    6 1    
    10    5   35 1    
    11    5   76 1    
    12    6    7 1    
    13    6   77 1    
    14    6   78 1    
    15    7    8 1    
    16    8    9 1    
    17    8   79 1    
    18    8   80 1    
    19    9   10 ar   
    20    9   14 ar   
    21   10   11 ar   
    22   10   81 1    
    23   11   12 ar   
    24   11   71 1    
    25   12   13 ar   
    26   12   82 1    
    27   13   14 ar   
    28   13   15 1    
    29   14   83 1    
    30   15   16 1    
    31   15   84 1    
    32   15   85 1    
    33   16   17 1    
    34   17   18 1    
    35   17   86 1    
    36   17   87 1    
    37   18   19 1    
    38   18   37 1    
    39   18   88 1    
    40   19   20 am   BACKBONE|DICT|INTERRES
    41   19   89 1    
    42   20   21 2    
    43   20   22 1    
    44   22   23 1    
    45   22   24 1    
    46   22   90 1    
    47   23   91 1    
    48   23   92 1    
    49   23   93 1    
    50   24   25 am   BACKBONE|DICT|INTERRES
    51   24   94 1    
    52   25   26 2    
    53   25   27 1    
    54   27   28 1    
    55   27   29 1    
    56   27   95 1    
    57   28   96 1    
    58   28   97 1    
    59   28   98 1    
    60   29   30 am   BACKBONE|DICT|INTERRES
    61   29   99 1    
    62   30   31 2    
    63   30   32 1    
    64   32   33 1    
    65   32   34 1    
    66   32  100 1    
    67   33  101 1    
    68   33  102 1    
    69   33  103 1    
    70   34   35 am   BACKBONE|DICT|INTERRES
    71   34  104 1    
    72   35   36 2    
    73   37   38 2    
    74   37   39 am   BACKBONE|DICT|INTERRES
    75   39   40 1    
    76   39  105 1    
    77   40   41 1    
    78   40   42 1    
    79   40  106 1    
    80   41  107 1    
    81   41  108 1    
    82   41  109 1    
    83   42   43 2    
    84   42   44 am   BACKBONE|DICT|INTERRES
    85   44   45 1    
    86   44  110 1    
    87   45   46 1    
    88   45   47 1    
    89   45  111 1    
    90   46  112 1    
    91   46  113 1    
    92   46  114 1    
    93   47   48 2    
    94   47   49 am   BACKBONE|DICT|INTERRES
    95   49   50 1    
    96   49  115 1    
    97   50   51 1    
    98   50   52 1    
    99   50  116 1    
   100   51  117 1    
   101   51  118 1    
   102   51  119 1    
   103   52   53 2    
   104   52   54 am   BACKBONE|DICT|INTERRES
   105   54   55 1    
   106   54  120 1    
   107   55   56 1    
   108   55   57 1    
   109   55  121 1    
   110   56  122 1    
   111   56  123 1    
   112   56  124 1    
   113   57   58 2    
   114   57   59 am   BACKBONE|DICT|INTERRES
   115   59   60 1    
   116   59  125 1    
   117   60   61 1    
   118   60   62 1    
   119   60  126 1    
   120   61  127 1    
   121   61  128 1    
   122   61  129 1    
   123   62   63 2    
   124   62   64 am   BACKBONE|DICT|INTERRES
   125   64   65 1    
   126   64  130 1    
   127   65   66 1    
   128   65   69 1    
   129   65  131 1    
   130   66   67 am   BACKBONE|DICT|INTERRES
   131   66   68 2    
   132   67  132 1    
   133   67  133 1    
   134   69   70 1    
   135   69  134 1    
   136   69  135 1    
   137   70   71 1    
   138   71  136 1    
   139   71  137 1    
@<TRIPOS>SUBSTRUCTURE
     1 UNK         1 GROUP             0       ****    0 ROOT    
