@<TRIPOS>MOLECULE
3R137
137   139    1
SMALL
USER_CHARGES


@<TRIPOS>ATOM
      1 CA         27.5493   -3.0784   -4.2050 C.3       0 UNK        -0.2020 
      2 C          27.2784   -4.1349   -3.1475 C.2       0 UNK         0.4855 
      3 O          26.5479   -5.0924   -3.4077 O.2       0 UNK        -0.5197 
      4 N          27.8568   -3.9747   -1.9515 N.am      1 UNK        -0.4892 
      5 CA         27.6481   -4.8595   -0.8017 C.3       1 UNK         0.0835 
      6 C6         28.6838   -4.6127    0.3211 C.3       12 UNK        -0.0855 
      7 S7         30.3673   -5.0732   -0.2108 S.3       12 UNK        -0.2931 
      8 C8         31.2686   -3.4989   -0.0559 C.3       12 UNK         0.0378 
      9 C9         30.8358   -2.4648   -1.0874 C.ar      12 UNK        -0.0802 
     10 C10        31.1040   -2.6680   -2.4444 C.ar      12 UNK        -0.0944 
     11 C11        30.7648   -1.7029   -3.3984 C.ar      12 UNK        -0.0787 
     12 C12        30.1671   -0.5106   -2.9677 C.ar      12 UNK        -0.0862 
     13 C13        29.8838   -0.2959   -1.6160 C.ar      12 UNK        -0.0733 
     14 C14        30.2124   -1.2820   -0.6813 C.ar      12 UNK        -0.0832 
     15 C15        29.2667    1.0181   -1.1546 C.3       12 UNK         0.0240 
     16 S16        27.5349    1.2005   -1.6892 S.3       12 UNK        -0.2522 
     17 C17        27.7043    2.0705   -3.2884 C.3       12 UNK        -0.0967 
     18 CA         27.1363    1.2540   -4.4779 C.3       5 UNK         0.0660 
     19 N          25.7137    0.9576   -4.2910 N.am      5 UNK        -0.4015 
     20 C          25.0263   -0.0052   -4.9151 C.2       4 UNK         0.4946 
     21 O          25.5042   -0.7491   -5.7759 O.2       4 UNK        -0.5353 
     22 CA         23.5436   -0.1423   -4.5285 C.3       4 UNK         0.0277 
     23 CB         22.6542    0.5693   -5.5610 C.3       4 UNK        -0.1981 
     24 N          23.1374   -1.5460   -4.4248 N.am      4 UNK        -0.4209 
     25 C          23.6262   -2.4114   -3.5265 C.2       3 UNK         0.4942 
     26 O          24.4182   -2.0926   -2.6360 O.2       3 UNK        -0.5208 
     27 CA         23.1490   -3.8687   -3.6601 C.3       3 UNK         0.0250 
     28 CB         23.5679   -4.4735   -5.0133 C.3       3 UNK        -0.1990 
     29 N          23.7024   -4.6944   -2.5857 N.am      3 UNK        -0.4232 
     30 C          23.1312   -4.8733   -1.3859 C.2       2 UNK         0.4993 
     31 O          22.0169   -4.4392   -1.0888 O.2       2 UNK        -0.5286 
     32 CA         23.9176   -5.6816   -0.3363 C.3       2 UNK         0.0209 
     33 CB         23.3947   -7.1264   -0.2685 C.3       2 UNK        -0.1931 
     34 N          25.3583   -5.7066   -0.6011 N.am      2 UNK        -0.4546 
     35 C          26.2024   -4.7151   -0.2860 C.2       1 UNK         0.5154 
     36 O          25.8788   -3.7144    0.3573 O.2       1 UNK        -0.5181 
     37 C          27.3652    1.9658   -5.8280 C.2       5 UNK         0.5014 
     38 O          27.5715    3.1813   -5.8615 O.2       5 UNK        -0.5248 
     39 N          27.2804    1.2009   -6.9225 N.am      6 UNK        -0.4434 
     40 CA         27.4203    1.6537   -8.3052 C.3       6 UNK         0.0363 
     41 CB         26.8212    0.5846   -9.2331 C.3       6 UNK        -0.1936 
     42 C          28.8829    1.9886   -8.6507 C.2       6 UNK         0.5081 
     43 O          29.5678    1.2079   -9.3198 O.2       6 UNK        -0.5248 
     44 N          29.3411    3.1505   -8.1689 N.am      7 UNK        -0.4718 
     45 CA         30.7010    3.6720   -8.3288 C.3       7 UNK         0.0273 
     46 CB         30.8394    4.9999   -7.5692 C.3       7 UNK        -0.1935 
     47 C          31.1433    3.8257   -9.7906 C.2       7 UNK         0.5018 
     48 O          32.2682    3.4541  -10.1257 O.2       7 UNK        -0.5186 
     49 N          30.2329    4.3293  -10.6336 N.am      8 UNK        -0.4240 
     50 CA         30.4422    4.4970  -12.0726 C.3       8 UNK         0.0235 
     51 CB         29.3443    5.4128  -12.6382 C.3       8 UNK        -0.2000 
     52 C          30.4834    3.1671  -12.8465 C.2       8 UNK         0.4941 
     53 O          31.0867    3.1239  -13.9196 O.2       8 UNK        -0.5273 
     54 N          29.8374    2.1209  -12.3111 N.am      9 UNK        -0.4262 
     55 CA         29.7870    0.7942  -12.9220 C.3       9 UNK         0.0264 
     56 CB         28.4714    0.0900  -12.5545 C.3       9 UNK        -0.1955 
     57 C          30.9877   -0.0657  -12.5097 C.2       9 UNK         0.5031 
     58 O          31.5993   -0.6844  -13.3828 O.2       9 UNK        -0.5390 
     59 N          31.2931   -0.1140  -11.2040 N.am      10 UNK        -0.4204 
     60 CA         32.3228   -1.0046  -10.6618 C.3       10 UNK         0.0237 
     61 CB         31.7508   -2.4258  -10.4904 C.3       10 UNK        -0.1985 
     62 C          32.9511   -0.5313   -9.3453 C.2       10 UNK         0.4970 
     63 O          34.1376   -0.7955   -9.1444 O.2       10 UNK        -0.4914 
     64 N          32.1735    0.0959   -8.4511 N.am      11 UNK        -0.4285 
     65 CA         32.6119    0.3658   -7.0671 C.3       11 UNK         0.1007 
     66 C          33.6643    1.5012   -6.8933 C.2       11 UNK         0.5703 
     67 N          33.9762    2.2954   -7.9100 N.am      11 UNK        -0.7361 
     68 O          34.2233    1.6549   -5.8103 O.2       11 UNK        -0.4986 
     69 C69        31.4222    0.5236   -6.0814 C.3       12 UNK        -0.0947 
     70 S70        30.2904   -0.9077   -6.1019 S.3       12 UNK        -0.2240 
     71 C71        31.0838   -1.9973   -4.8671 C.3       12 UNK         0.0194 
     72 H72        28.3382   -3.4089   -4.8789 H         1 UNK         0.0906 
     73 H73        26.6513   -2.9024   -4.7951 H         1 UNK         0.0906 
     74 H74        27.8441   -2.1296   -3.7581 H         1 UNK         0.0906 
     75 H75        28.4605   -3.1804   -1.7877 H         1 UNK         0.3140 
     76 H76        27.7809   -5.8877   -1.1467 H         1 UNK         0.1085 
     77 H77        28.6592   -3.5726    0.6515 H         1 UNK         0.0836 
     78 H78        28.4446   -5.2146    1.2001 H         1 UNK         0.0836 
     79 H79        31.1506   -3.1164    0.9593 H         1 UNK         0.0731 
     80 H80        32.3344   -3.6946   -0.1822 H         1 UNK         0.0731 
     81 H81        31.5856   -3.5850   -2.7569 H         1 UNK         0.1312 
     82 H82        29.9193    0.2633   -3.6759 H         1 UNK         0.1406 
     83 H83        30.0099   -1.1152    0.3683 H         1 UNK         0.1631 
     84 H84        29.8686    1.8561   -1.5084 H         1 UNK         0.0717 
     85 H85        29.2877    1.0806   -0.0656 H         1 UNK         0.0717 
     86 H86        27.1883    3.0288   -3.2010 H         1 UNK         0.0934 
     87 H87        28.7520    2.3185   -3.4655 H         1 UNK         0.0934 
     88 H88        27.6753    0.3052   -4.5187 H         1 UNK         0.0739 
     89 H89        25.2380    1.5294   -3.6086 H         1 UNK         0.3093 
     90 H90        23.3862    0.3221   -3.5525 H         1 UNK         0.0818 
     91 H91        21.6012    0.5174   -5.2833 H         1 UNK         0.0819 
     92 H92        22.9150    1.6257   -5.6399 H         1 UNK         0.0819 
     93 H93        22.7625    0.1332   -6.5552 H         1 UNK         0.0819 
     94 H94        22.5145   -1.8883   -5.1415 H         1 UNK         0.3041 
     95 H95        22.0585   -3.8755   -3.6008 H         1 UNK         0.0784 
     96 H96        23.0842   -3.9619   -5.8458 H         1 UNK         0.0793 
     97 H97        24.6441   -4.4046   -5.1730 H         1 UNK         0.0793 
     98 H98        23.2883   -5.5251   -5.0801 H         1 UNK         0.0793 
     99 H99        24.6563   -5.0132   -2.7257 H         1 UNK         0.3024 
    100 H100       23.7437   -5.2091    0.6335 H         1 UNK         0.1171 
    101 H101       23.5382   -7.6536   -1.2126 H         1 UNK         0.0786 
    102 H102       22.3271   -7.1445   -0.0444 H         1 UNK         0.0786 
    103 H103       23.8978   -7.6943    0.5144 H         1 UNK         0.0786 
    104 H104       25.7023   -6.4779   -1.1565 H         1 UNK         0.2977 
    105 H105       27.0249    0.2279   -6.7870 H         1 UNK         0.3127 
    106 H106       26.8307    2.5647   -8.4285 H         1 UNK         0.0770 
    107 H107       27.3899   -0.3459   -9.2037 H         1 UNK         0.0814 
    108 H108       26.8038    0.9367  -10.2641 H         1 UNK         0.0814 
    109 H109       25.7916    0.3537   -8.9587 H         1 UNK         0.0814 
    110 H110       28.7243    3.6656   -7.5493 H         1 UNK         0.2983 
    111 H111       31.3743    2.9551   -7.8683 H         1 UNK         0.0947 
    112 H112       31.8531    5.3943   -7.6548 H         1 UNK         0.0806 
    113 H113       30.6330    4.8708   -6.5064 H         1 UNK         0.0806 
    114 H114       30.1585    5.7604   -7.9532 H         1 UNK         0.0806 
    115 H115       29.3346    4.6029  -10.2619 H         1 UNK         0.3000 
    116 H116       31.4068    4.9884  -12.2191 H         1 UNK         0.0850 
    117 H117       28.3508    4.9814  -12.5095 H         1 UNK         0.0810 
    118 H118       29.3531    6.3897  -12.1544 H         1 UNK         0.0810 
    119 H119       29.4896    5.5819  -13.7063 H         1 UNK         0.0810 
    120 H120       29.4133    2.2232  -11.3999 H         1 UNK         0.3040 
    121 H121       29.8057    0.9025  -14.0090 H         1 UNK         0.0766 
    122 H122       27.6053    0.7098  -12.7866 H         1 UNK         0.0812 
    123 H123       28.4337   -0.1695  -11.4972 H         1 UNK         0.0812 
    124 H124       28.3641   -0.8399  -13.1145 H         1 UNK         0.0812 
    125 H125       30.7358    0.4250  -10.5443 H         1 UNK         0.3205 
    126 H126       33.1457   -1.0552  -11.3786 H         1 UNK         0.0754 
    127 H127       31.4364   -2.8484  -11.4448 H         1 UNK         0.0769 
    128 H128       30.8893   -2.4321   -9.8212 H         1 UNK         0.0769 
    129 H129       32.4965   -3.1026  -10.0707 H         1 UNK         0.0769 
    130 H130       31.2029    0.2982   -8.6617 H         1 UNK         0.2981 
    131 H131       33.1432   -0.5306   -6.7409 H         1 UNK         0.0541 
    132 H132       33.5063    2.2196   -8.8017 H         1 UNK         0.3459 
    133 H133       34.6711    3.0115   -7.7733 H         1 UNK         0.3459 
    134 H134       31.7897    0.6625   -5.0634 H         1 UNK         0.0612 
    135 H135       30.8377    1.4132   -6.3109 H         1 UNK         0.0612 
    136 H136       32.1650   -1.9711   -5.0067 H         1 UNK         0.0624 
    137 H137       30.7749   -3.0189   -5.0920 H         1 UNK         0.0624 
@<TRIPOS>BOND
     1    1    2 1    
     2    1   72 1    
     3    1   73 1    
     4    1   74 1    
     5    2    3 2    
     6    2    4 am   BACKBONE|DICT|INTERRES
     7    4    5 1    
     8    4   75 1    
     9    5    6 1    
    10    5   35 1    
    11    5   76 1    
    12    6    7 1    
    13    6   77 1    
    14    6   78 1    
    15    7    8 1    
    16    8    9 1    
    17    8   79 1    
    18    8   80 1    
    19    9   10 ar   
    20    9   14 ar   
    21   10   11 ar   
    22   10   81 1    
    23   11   12 ar   
    24   11   71 1    
    25   12   13 ar   
    26   12   82 1    
    27   13   14 ar   
    28   13   15 1    
    29   14   83 1    
    30   15   16 1    
    31   15   84 1    
    32   15   85 1    
    33   16   17 1    
    34   17   18 1    
    35   17   86 1    
    36   17   87 1    
    37   18   19 1    
    38   18   37 1    
    39   18   88 1    
    40   19   20 am   BACKBONE|DICT|INTERRES
    41   19   89 1    
    42   20   21 2    
    43   20   22 1    
    44   22   23 1    
    45   22   24 1    
    46   22   90 1    
    47   23   91 1    
    48   23   92 1    
    49   23   93 1    
    50   24   25 am   BACKBONE|DICT|INTERRES
    51   24   94 1    
    52   25   26 2    
    53   25   27 1    
    54   27   28 1    
    55   27   29 1    
    56   27   95 1    
    57   28   96 1    
    58   28   97 1    
    59   28   98 1    
    60   29   30 am   BACKBONE|DICT|INTERRES
    61   29   99 1    
    62   30   31 2    
    63   30   32 1    
    64   32   33 1    
    65   32   34 1    
    66   32  100 1    
    67   33  101 1    
    68   33  102 1    
    69   33  103 1    
    70   34   35 am   BACKBONE|DICT|INTERRES
    71   34  104 1    
    72   35   36 2    
    73   37   38 2    
    74   37   39 am   BACKBONE|DICT|INTERRES
    75   39   40 1    
    76   39  105 1    
    77   40   41 1    
    78   40   42 1    
    79   40  106 1    
    80   41  107 1    
    81   41  108 1    
    82   41  109 1    
    83   42   43 2    
    84   42   44 am   BACKBONE|DICT|INTERRES
    85   44   45 1    
    86   44  110 1    
    87   45   46 1    
    88   45   47 1    
    89   45  111 1    
    90   46  112 1    
    91   46  113 1    
    92   46  114 1    
    93   47   48 2    
    94   47   49 am   BACKBONE|DICT|INTERRES
    95   49   50 1    
    96   49  115 1    
    97   50   51 1    
    98   50   52 1    
    99   50  116 1    
   100   51  117 1    
   101   51  118 1    
   102   51  119 1    
   103   52   53 2    
   104   52   54 am   BACKBONE|DICT|INTERRES
   105   54   55 1    
   106   54  120 1    
   107   55   56 1    
   108   55   57 1    
   109   55  121 1    
   110   56  122 1    
   111   56  123 1    
   112   56  124 1    
   113   57   58 2    
   114   57   59 am   BACKBONE|DICT|INTERRES
   115   59   60 1    
   116   59  125 1    
   117   60   61 1    
   118   60   62 1    
   119   60  126 1    
   120   61  127 1    
   121   61  128 1    
   122   61  129 1    
   123   62   63 2    
   124   62   64 am   BACKBONE|DICT|INTERRES
   125   64   65 1    
   126   64  130 1    
   127   65   66 1    
   128   65   69 1    
   129   65  131 1    
   130   66   67 am   BACKBONE|DICT|INTERRES
   131   66   68 2    
   132   67  132 1    
   133   67  133 1    
   134   69   70 1    
   135   69  134 1    
   136   69  135 1    
   137   70   71 1    
   138   71  136 1    
   139   71  137 1    
@<TRIPOS>SUBSTRUCTURE
     1 UNK         1 GROUP             0       ****    0 ROOT    
