@<TRIPOS>MOLECULE
3R137
137   139    1
SMALL
USER_CHARGES


@<TRIPOS>ATOM
      1 CA         23.9745   -6.3477   -1.5824 C.3       0 UNK        -0.2020 
      2 C          25.1562   -5.4106   -1.7770 C.2       0 UNK         0.4855 
      3 O          25.4222   -4.9923   -2.9036 O.2       0 UNK        -0.5197 
      4 N          25.8563   -5.0640   -0.6863 N.am      1 UNK        -0.4892 
      5 CA         27.0380   -4.1885   -0.6632 C.3       1 UNK         0.0835 
      6 C6         28.2607   -4.8552   -1.3494 C.3       12 UNK        -0.0855 
      7 S7         29.8595   -4.2435   -0.7154 S.3       12 UNK        -0.2931 
      8 C8         30.8121   -3.9690   -2.2544 C.3       12 UNK         0.0378 
      9 C9         31.1368   -2.5127   -2.6006 C.ar      12 UNK        -0.0802 
     10 C10        31.9794   -2.2758   -3.6910 C.ar      12 UNK        -0.0944 
     11 C11        32.3629   -0.9775   -4.0379 C.ar      12 UNK        -0.0787 
     12 C12        31.8987    0.1002   -3.2809 C.ar      12 UNK        -0.0862 
     13 C13        31.0387   -0.1121   -2.2003 C.ar      12 UNK        -0.0733 
     14 C14        30.6574   -1.4172   -1.8681 C.ar      12 UNK        -0.0832 
     15 C15        30.5355    1.0698   -1.3810 C.3       12 UNK         0.0240 
     16 S16        29.4275    2.1576   -2.3351 S.3       12 UNK        -0.2522 
     17 C17        28.0912    1.0067   -2.7954 C.3       12 UNK        -0.0967 
     18 CA         28.1370    0.6298   -4.2996 C.3       5 UNK         0.0660 
     19 N          27.6464   -0.7353   -4.5374 N.am      5 UNK        -0.4015 
     20 C          27.5494   -1.3389   -5.7334 C.2       4 UNK         0.4946 
     21 O          27.8489   -0.8076   -6.8008 O.2       4 UNK        -0.5353 
     22 CA         26.9733   -2.7625   -5.7498 C.3       4 UNK         0.0277 
     23 CB         28.0088   -3.7725   -5.2350 C.3       4 UNK        -0.1981 
     24 N          25.7392   -2.8444   -4.9661 N.am      4 UNK        -0.4209 
     25 C          24.5857   -2.2644   -5.3330 C.2       3 UNK         0.4942 
     26 O          24.4032   -1.7346   -6.4290 O.2       3 UNK        -0.5208 
     27 CA         23.4556   -2.2235   -4.2911 C.3       3 UNK         0.0250 
     28 CB         22.5934   -3.4943   -4.3562 C.3       3 UNK        -0.1990 
     29 N          23.9539   -2.0198   -2.9284 N.am      3 UNK        -0.4232 
     30 C          24.5443   -0.8936   -2.5006 C.2       2 UNK         0.4993 
     31 O          24.7028    0.1057   -3.2011 O.2       2 UNK        -0.5286 
     32 CA         25.0840   -0.8914   -1.0605 C.3       2 UNK         0.0209 
     33 CB         23.9886   -0.4534   -0.0759 C.3       2 UNK        -0.1931 
     34 N          25.6306   -2.1862   -0.6430 N.am      2 UNK        -0.4546 
     35 C          26.6971   -2.7790   -1.2004 C.2       1 UNK         0.5154 
     36 O          27.3349   -2.2818   -2.1301 O.2       1 UNK        -0.5181 
     37 C          27.4155    1.6938   -5.1546 C.2       5 UNK         0.5014 
     38 O          28.0681    2.5845   -5.7017 O.2       5 UNK        -0.5248 
     39 N          26.0896    1.5462   -5.2973 N.am      6 UNK        -0.4434 
     40 CA         25.2078    2.3835   -6.1155 C.3       6 UNK         0.0363 
     41 CB         23.7572    1.9077   -5.9347 C.3       6 UNK        -0.1936 
     42 C          25.5658    2.4582   -7.6142 C.2       6 UNK         0.5081 
     43 O          25.1008    3.3826   -8.2820 O.2       6 UNK        -0.5248 
     44 N          26.3870    1.5270   -8.1258 N.am      7 UNK        -0.4718 
     45 CA         26.9402    1.5842   -9.4830 C.3       7 UNK         0.0273 
     46 CB         27.5452    0.2207   -9.8532 C.3       7 UNK        -0.1935 
     47 C          27.9915    2.6956   -9.6633 C.2       7 UNK         0.5018 
     48 O          28.2317    3.1022  -10.8003 O.2       7 UNK        -0.5186 
     49 N          28.6065    3.1544   -8.5601 N.am      8 UNK        -0.4240 
     50 CA         29.6324    4.2019   -8.4315 C.3       8 UNK         0.0235 
     51 CB         29.1170    5.5608   -8.9434 C.3       8 UNK        -0.2000 
     52 C          31.0043    3.8634   -9.0465 C.2       8 UNK         0.4941 
     53 O          32.0241    4.2401   -8.4671 O.2       8 UNK        -0.5273 
     54 N          31.0187    3.1633  -10.1834 N.am      9 UNK        -0.4262 
     55 CA         32.1958    2.6311  -10.8597 C.3       9 UNK         0.0264 
     56 CB         32.4952    3.4804  -12.1061 C.3       9 UNK        -0.1955 
     57 C          31.9053    1.1759  -11.2430 C.2       9 UNK         0.5031 
     58 O          30.7430    0.8254  -11.4618 O.2       9 UNK        -0.5390 
     59 N          32.9668    0.3589  -11.3109 N.am      10 UNK        -0.4204 
     60 CA         32.9469   -1.0887  -11.5797 C.3       10 UNK         0.0237 
     61 CB         32.4937   -1.3755  -13.0280 C.3       10 UNK        -0.1985 
     62 C          32.1529   -1.9008  -10.5314 C.2       10 UNK         0.4970 
     63 O          31.6076   -2.9573  -10.8540 O.2       10 UNK        -0.4914 
     64 N          32.1142   -1.3948   -9.2927 N.am      11 UNK        -0.4285 
     65 CA         31.4385   -2.0001   -8.1367 C.3       11 UNK         0.1007 
     66 C          32.1378   -3.2586   -7.5446 C.2       11 UNK         0.5703 
     67 N          33.3741   -3.5715   -7.9154 N.am      11 UNK        -0.7361 
     68 O          31.5414   -3.9728   -6.7433 O.2       11 UNK        -0.4986 
     69 C69        31.1162   -0.9368   -7.0515 C.3       12 UNK        -0.0947 
     70 S70        32.5111    0.1522   -6.5898 S.3       12 UNK        -0.2240 
     71 C71        33.3004   -0.7459   -5.2145 C.3       12 UNK         0.0194 
     72 H72        24.0925   -7.2309   -2.2099 H         1 UNK         0.0906 
     73 H73        23.8797   -6.6773   -0.5479 H         1 UNK         0.0906 
     74 H74        23.0483   -5.8492   -1.8676 H         1 UNK         0.0906 
     75 H75        25.5775   -5.4355    0.2122 H         1 UNK         0.3140 
     76 H76        27.2830   -4.0539    0.3918 H         1 UNK         0.1085 
     77 H77        28.1950   -4.7665   -2.4324 H         1 UNK         0.0836 
     78 H78        28.2496   -5.9284   -1.1525 H         1 UNK         0.0836 
     79 H79        30.3099   -4.4331   -3.1032 H         1 UNK         0.0731 
     80 H80        31.7554   -4.5055   -2.1439 H         1 UNK         0.0731 
     81 H81        32.3494   -3.1127   -4.2679 H         1 UNK         0.1312 
     82 H82        32.1962    1.1069   -3.5414 H         1 UNK         0.1406 
     83 H83        29.9924   -1.5702   -1.0305 H         1 UNK         0.1631 
     84 H84        31.3893    1.6535   -1.0341 H         1 UNK         0.0717 
     85 H85        30.0140    0.7301   -0.4847 H         1 UNK         0.0717 
     86 H86        28.1886    0.1182   -2.1734 H         1 UNK         0.0934 
     87 H87        27.1309    1.4450   -2.5159 H         1 UNK         0.0934 
     88 H88        29.1796    0.6129   -4.6251 H         1 UNK         0.0739 
     89 H89        27.4146   -1.2781   -3.7080 H         1 UNK         0.3093 
     90 H90        26.7335   -3.0218   -6.7832 H         1 UNK         0.0818 
     91 H91        28.8578   -3.8341   -5.9165 H         1 UNK         0.0819 
     92 H92        27.5867   -4.7734   -5.1450 H         1 UNK         0.0819 
     93 H93        28.4029   -3.4803   -4.2632 H         1 UNK         0.0819 
     94 H94        25.7854   -3.3240   -4.0722 H         1 UNK         0.3041 
     95 H95        22.8169   -1.3722   -4.5374 H         1 UNK         0.0784 
     96 H96        22.1612   -3.6168   -5.3503 H         1 UNK         0.0793 
     97 H97        23.1723   -4.3929   -4.1442 H         1 UNK         0.0793 
     98 H98        21.7660   -3.4512   -3.6478 H         1 UNK         0.0793 
     99 H99        23.9004   -2.8056   -2.2979 H         1 UNK         0.3024 
    100 H100       25.8929   -0.1596   -1.0170 H         1 UNK         0.1171 
    101 H101       24.3801   -0.3581    0.9370 H         1 UNK         0.0786 
    102 H102       23.5803    0.5191   -0.3553 H         1 UNK         0.0786 
    103 H103       23.1584   -1.1604   -0.0511 H         1 UNK         0.0786 
    104 H104       25.1453   -2.6694    0.0993 H         1 UNK         0.2977 
    105 H105       25.6321    0.8215   -4.7489 H         1 UNK         0.3127 
    106 H106       25.2830    3.3999   -5.7240 H         1 UNK         0.0770 
    107 H107       23.6263    0.8816   -6.2792 H         1 UNK         0.0814 
    108 H108       23.0649    2.5329   -6.5003 H         1 UNK         0.0814 
    109 H109       23.4507    1.9523   -4.8895 H         1 UNK         0.0814 
    110 H110       26.7381    0.7874   -7.5240 H         1 UNK         0.2983 
    111 H111       26.1213    1.7924  -10.1748 H         1 UNK         0.0947 
    112 H112       27.8626    0.2075  -10.8969 H         1 UNK         0.0806 
    113 H113       26.8260   -0.5872   -9.7196 H         1 UNK         0.0806 
    114 H114       28.4249   -0.0079   -9.2506 H         1 UNK         0.0806 
    115 H115       28.3298    2.7422   -7.6726 H         1 UNK         0.3000 
    116 H116       29.7978    4.3020   -7.3573 H         1 UNK         0.0850 
    117 H117       29.8378    6.3524   -8.7349 H         1 UNK         0.0810 
    118 H118       28.1813    5.8376   -8.4575 H         1 UNK         0.0810 
    119 H119       28.9478    5.5549  -10.0205 H         1 UNK         0.0810 
    120 H120       30.1259    2.8813  -10.5833 H         1 UNK         0.3040 
    121 H121       33.0570    2.6514  -10.1882 H         1 UNK         0.0766 
    122 H122       32.6961    4.5178  -11.8373 H         1 UNK         0.0812 
    123 H123       31.6602    3.4726  -12.8083 H         1 UNK         0.0812 
    124 H124       33.3721    3.1062  -12.6358 H         1 UNK         0.0812 
    125 H125       33.8803    0.7517  -11.1254 H         1 UNK         0.3205 
    126 H126       33.9807   -1.4255  -11.4913 H         1 UNK         0.0754 
    127 H127       32.6202   -2.4298  -13.2774 H         1 UNK         0.0769 
    128 H128       33.0784   -0.8025  -13.7474 H         1 UNK         0.0769 
    129 H129       31.4421   -1.1306  -13.1801 H         1 UNK         0.0769 
    130 H130       32.5980   -0.5303   -9.1032 H         1 UNK         0.2981 
    131 H131       30.4748   -2.3656   -8.4978 H         1 UNK         0.0541 
    132 H132       33.8739   -2.9965   -8.5733 H         1 UNK         0.3459 
    133 H133       33.8085   -4.3959   -7.5316 H         1 UNK         0.3459 
    134 H134       30.3418   -0.2744   -7.4403 H         1 UNK         0.0612 
    135 H135       30.6772   -1.3928   -6.1629 H         1 UNK         0.0612 
    136 H136       33.7007   -1.6895   -5.5861 H         1 UNK         0.0624 
    137 H137       34.1602   -0.1685   -4.8722 H         1 UNK         0.0624 
@<TRIPOS>BOND
     1    1    2 1    
     2    1   72 1    
     3    1   73 1    
     4    1   74 1    
     5    2    3 2    
     6    2    4 am   BACKBONE|DICT|INTERRES
     7    4    5 1    
     8    4   75 1    
     9    5    6 1    
    10    5   35 1    
    11    5   76 1    
    12    6    7 1    
    13    6   77 1    
    14    6   78 1    
    15    7    8 1    
    16    8    9 1    
    17    8   79 1    
    18    8   80 1    
    19    9   10 ar   
    20    9   14 ar   
    21   10   11 ar   
    22   10   81 1    
    23   11   12 ar   
    24   11   71 1    
    25   12   13 ar   
    26   12   82 1    
    27   13   14 ar   
    28   13   15 1    
    29   14   83 1    
    30   15   16 1    
    31   15   84 1    
    32   15   85 1    
    33   16   17 1    
    34   17   18 1    
    35   17   86 1    
    36   17   87 1    
    37   18   19 1    
    38   18   37 1    
    39   18   88 1    
    40   19   20 am   BACKBONE|DICT|INTERRES
    41   19   89 1    
    42   20   21 2    
    43   20   22 1    
    44   22   23 1    
    45   22   24 1    
    46   22   90 1    
    47   23   91 1    
    48   23   92 1    
    49   23   93 1    
    50   24   25 am   BACKBONE|DICT|INTERRES
    51   24   94 1    
    52   25   26 2    
    53   25   27 1    
    54   27   28 1    
    55   27   29 1    
    56   27   95 1    
    57   28   96 1    
    58   28   97 1    
    59   28   98 1    
    60   29   30 am   BACKBONE|DICT|INTERRES
    61   29   99 1    
    62   30   31 2    
    63   30   32 1    
    64   32   33 1    
    65   32   34 1    
    66   32  100 1    
    67   33  101 1    
    68   33  102 1    
    69   33  103 1    
    70   34   35 am   BACKBONE|DICT|INTERRES
    71   34  104 1    
    72   35   36 2    
    73   37   38 2    
    74   37   39 am   BACKBONE|DICT|INTERRES
    75   39   40 1    
    76   39  105 1    
    77   40   41 1    
    78   40   42 1    
    79   40  106 1    
    80   41  107 1    
    81   41  108 1    
    82   41  109 1    
    83   42   43 2    
    84   42   44 am   BACKBONE|DICT|INTERRES
    85   44   45 1    
    86   44  110 1    
    87   45   46 1    
    88   45   47 1    
    89   45  111 1    
    90   46  112 1    
    91   46  113 1    
    92   46  114 1    
    93   47   48 2    
    94   47   49 am   BACKBONE|DICT|INTERRES
    95   49   50 1    
    96   49  115 1    
    97   50   51 1    
    98   50   52 1    
    99   50  116 1    
   100   51  117 1    
   101   51  118 1    
   102   51  119 1    
   103   52   53 2    
   104   52   54 am   BACKBONE|DICT|INTERRES
   105   54   55 1    
   106   54  120 1    
   107   55   56 1    
   108   55   57 1    
   109   55  121 1    
   110   56  122 1    
   111   56  123 1    
   112   56  124 1    
   113   57   58 2    
   114   57   59 am   BACKBONE|DICT|INTERRES
   115   59   60 1    
   116   59  125 1    
   117   60   61 1    
   118   60   62 1    
   119   60  126 1    
   120   61  127 1    
   121   61  128 1    
   122   61  129 1    
   123   62   63 2    
   124   62   64 am   BACKBONE|DICT|INTERRES
   125   64   65 1    
   126   64  130 1    
   127   65   66 1    
   128   65   69 1    
   129   65  131 1    
   130   66   67 am   BACKBONE|DICT|INTERRES
   131   66   68 2    
   132   67  132 1    
   133   67  133 1    
   134   69   70 1    
   135   69  134 1    
   136   69  135 1    
   137   70   71 1    
   138   71  136 1    
   139   71  137 1    
@<TRIPOS>SUBSTRUCTURE
     1 UNK         1 GROUP             0       ****    0 ROOT    
