@<TRIPOS>MOLECULE
3R137
137   139    1
SMALL
USER_CHARGES


@<TRIPOS>ATOM
      1 CA         28.9276   -0.2515    3.4986 C.3       0 UNK        -0.2020 
      2 C          28.8897   -0.1944    1.9788 C.2       0 UNK         0.4855 
      3 O          29.3554    0.7826    1.3923 O.2       0 UNK        -0.5197 
      4 N          28.3429   -1.2363    1.3376 N.am      1 UNK        -0.4892 
      5 CA         28.1913   -1.3399   -0.1194 C.3       1 UNK         0.0835 
      6 C6         27.8508   -2.7956   -0.5331 C.3       12 UNK        -0.0855 
      7 S7         28.0343   -3.1039   -2.3213 S.3       12 UNK        -0.2931 
      8 C8         29.6687   -3.8997   -2.3801 C.3       12 UNK         0.0378 
      9 C9         30.1375   -4.1247   -3.8117 C.ar      12 UNK        -0.0802 
     10 C10        31.3208   -3.5346   -4.2687 C.ar      12 UNK        -0.0944 
     11 C11        31.7810   -3.7794   -5.5659 C.ar      12 UNK        -0.0787 
     12 C12        31.0367   -4.6046   -6.4163 C.ar      12 UNK        -0.0862 
     13 C13        29.8517   -5.2006   -5.9723 C.ar      12 UNK        -0.0733 
     14 C14        29.4100   -4.9579   -4.6680 C.ar      12 UNK        -0.0832 
     15 C15        29.0853   -6.1591   -6.8765 C.3       12 UNK         0.0240 
     16 S16        28.2276   -5.3213   -8.2477 S.3       12 UNK        -0.2522 
     17 C17        26.8865   -4.4336   -7.3829 C.3       12 UNK        -0.0967 
     18 CA         26.6102   -3.0359   -7.9921 C.3       5 UNK         0.0660 
     19 N          25.3462   -2.4699   -7.5081 N.am      5 UNK        -0.4015 
     20 C          24.7947   -1.3298   -7.9518 C.2       4 UNK         0.4946 
     21 O          25.2722   -0.6411   -8.8519 O.2       4 UNK        -0.5353 
     22 CA         23.5025   -0.8527   -7.2687 C.3       4 UNK         0.0277 
     23 CB         22.2732   -1.3566   -8.0418 C.3       4 UNK        -0.1981 
     24 N          23.3821   -1.2321   -5.8580 N.am      4 UNK        -0.4209 
     25 C          24.2200   -0.8615   -4.8802 C.2       3 UNK         0.4942 
     26 O          25.2525   -0.2087   -5.0596 O.2       3 UNK        -0.5208 
     27 CA         23.8431   -1.3404   -3.4749 C.3       3 UNK         0.0250 
     28 CB         24.2431   -2.8130   -3.2735 C.3       3 UNK        -0.1990 
     29 N          24.5091   -0.5125   -2.4736 N.am      3 UNK        -0.4232 
     30 C          23.9968   -0.1753   -1.2844 C.2       2 UNK         0.4993 
     31 O          22.8831   -0.5333   -0.8951 O.2       2 UNK        -0.5286 
     32 CA         24.9021    0.6594   -0.3579 C.3       2 UNK         0.0209 
     33 CB         24.1638    1.1777    0.8911 C.3       2 UNK        -0.1931 
     34 N          26.0536   -0.1367    0.0703 N.am      2 UNK        -0.4546 
     35 C          27.1553   -0.3331   -0.6663 C.2       1 UNK         0.5154 
     36 O          27.3586    0.2421   -1.7359 O.2       1 UNK        -0.5181 
     37 C          27.7858   -2.0621   -7.7777 C.2       5 UNK         0.5014 
     38 O          28.4784   -1.7255   -8.7397 O.2       5 UNK        -0.5248 
     39 N          27.9445   -1.5825   -6.5355 N.am      6 UNK        -0.4434 
     40 CA         28.9669   -0.6069   -6.1618 C.3       6 UNK         0.0363 
     41 CB         28.9936   -0.4302   -4.6390 C.3       6 UNK        -0.1936 
     42 C          28.7765    0.7501   -6.8480 C.2       6 UNK         0.5081 
     43 O          29.7689    1.3643   -7.2346 O.2       6 UNK        -0.5248 
     44 N          27.5177    1.1817   -7.0089 N.am      7 UNK        -0.4718 
     45 CA         27.1579    2.4113   -7.7171 C.3       7 UNK         0.0273 
     46 CB         25.6668    2.7171   -7.5062 C.3       7 UNK        -0.1935 
     47 C          27.5044    2.3528   -9.2148 C.2       7 UNK         0.5018 
     48 O          28.0858    3.3057   -9.7340 O.2       7 UNK        -0.5186 
     49 N          27.1651    1.2348   -9.8731 N.am      8 UNK        -0.4240 
     50 CA         27.4451    0.9860  -11.2887 C.3       8 UNK         0.0235 
     51 CB         26.6536   -0.2424  -11.7661 C.3       8 UNK        -0.2000 
     52 C          28.9430    0.8104  -11.5812 C.2       8 UNK         0.4941 
     53 O          29.4386    1.3865  -12.5505 O.2       8 UNK        -0.5273 
     54 N          29.6368    0.0259  -10.7451 N.am      9 UNK        -0.4262 
     55 CA         31.0703   -0.2505  -10.8782 C.3       9 UNK         0.0264 
     56 CB         31.3887   -1.5723  -10.1634 C.3       9 UNK        -0.1955 
     57 C          31.9772    0.8862  -10.3671 C.2       9 UNK         0.5031 
     58 O          33.1726    0.8639  -10.6647 O.2       9 UNK        -0.5390 
     59 N          31.4086    1.8435   -9.6177 N.am      10 UNK        -0.4204 
     60 CA         32.0674    2.9720   -8.9470 C.3       10 UNK         0.0237 
     61 CB         32.6800    3.9530   -9.9700 C.3       10 UNK        -0.1985 
     62 C          33.0651    2.5041   -7.8687 C.2       10 UNK         0.4970 
     63 O          34.1928    2.9987   -7.8062 O.2       10 UNK        -0.4914 
     64 N          32.6258    1.5428   -7.0492 N.am      11 UNK        -0.4285 
     65 CA         33.3908    0.9653   -5.9359 C.3       11 UNK         0.1007 
     66 C          33.4616    1.9248   -4.7180 C.2       11 UNK         0.5703 
     67 N          34.5270    1.8476   -3.9319 N.am      11 UNK        -0.7361 
     68 O          32.5509    2.7093   -4.4568 O.2       11 UNK        -0.4986 
     69 C69        32.8367   -0.4227   -5.5207 C.3       12 UNK        -0.0947 
     70 S70        32.9123   -1.6183   -6.8954 S.3       12 UNK        -0.2240 
     71 C71        33.1115   -3.2044   -6.0318 C.3       12 UNK         0.0194 
     72 H72        28.3736    0.5873    3.9191 H         1 UNK         0.0906 
     73 H73        28.4920   -1.1729    3.8847 H         1 UNK         0.0906 
     74 H74        29.9571   -0.1904    3.8506 H         1 UNK         0.0906 
     75 H75        27.9888   -2.0149    1.8761 H         1 UNK         0.3140 
     76 H76        29.1542   -1.0777   -0.5644 H         1 UNK         0.1085 
     77 H77        28.4933   -3.4963    0.0028 H         1 UNK         0.0836 
     78 H78        26.8302   -3.0531   -0.2427 H         1 UNK         0.0836 
     79 H79        29.6240   -4.8586   -1.8619 H         1 UNK         0.0731 
     80 H80        30.3837   -3.2820   -1.8342 H         1 UNK         0.0731 
     81 H81        31.8984   -2.9018   -3.6088 H         1 UNK         0.1312 
     82 H82        31.3907   -4.8018   -7.4191 H         1 UNK         0.1406 
     83 H83        28.5038   -5.4264   -4.3082 H         1 UNK         0.1631 
     84 H84        28.3605   -6.7402   -6.3042 H         1 UNK         0.0717 
     85 H85        29.7855   -6.8824   -7.2969 H         1 UNK         0.0717 
     86 H86        25.9927   -5.0550   -7.4584 H         1 UNK         0.0934 
     87 H87        27.1074   -4.3566   -6.3172 H         1 UNK         0.0934 
     88 H88        26.4932   -3.1605   -9.0712 H         1 UNK         0.0739 
     89 H89        24.8755   -2.9694   -6.7689 H         1 UNK         0.3093 
     90 H90        23.5014    0.2380   -7.3087 H         1 UNK         0.0818 
     91 H91        21.3507   -0.9373   -7.6398 H         1 UNK         0.0819 
     92 H92        22.3268   -1.0649   -9.0919 H         1 UNK         0.0819 
     93 H93        22.1915   -2.4438   -8.0100 H         1 UNK         0.0819 
     94 H94        22.5679   -1.7772   -5.6112 H         1 UNK         0.3041 
     95 H95        22.7607   -1.2412   -3.3661 H         1 UNK         0.0784 
     96 H96        23.7102   -3.4666   -3.9648 H         1 UNK         0.0793 
     97 H97        25.3099   -2.9644   -3.4378 H         1 UNK         0.0793 
     98 H98        24.0101   -3.1536   -2.2645 H         1 UNK         0.0793 
     99 H99        25.4283   -0.1691   -2.7361 H         1 UNK         0.3024 
    100 H100       25.2462    1.5271   -0.9263 H         1 UNK         0.1171 
    101 H101       24.8131    1.8046    1.5026 H         1 UNK         0.0786 
    102 H102       23.3012    1.7836    0.6104 H         1 UNK         0.0786 
    103 H103       23.8000    0.3617    1.5169 H         1 UNK         0.0786 
    104 H104       25.9564   -0.6500    0.9343 H         1 UNK         0.2977 
    105 H105       27.3012   -1.8642   -5.8103 H         1 UNK         0.3127 
    106 H106       29.9318   -1.0043   -6.4820 H         1 UNK         0.0770 
    107 H107       28.0016   -0.2112   -4.2439 H         1 UNK         0.0814 
    108 H108       29.6493    0.3895   -4.3423 H         1 UNK         0.0814 
    109 H109       29.3646   -1.3275   -4.1490 H         1 UNK         0.0814 
    110 H110       26.7619    0.6220   -6.6327 H         1 UNK         0.2983 
    111 H111       27.7363    3.2263   -7.2759 H         1 UNK         0.0947 
    112 H112       25.4007    3.6754   -7.9541 H         1 UNK         0.0806 
    113 H113       25.4173    2.7728   -6.4463 H         1 UNK         0.0806 
    114 H114       25.0299    1.9594   -7.9615 H         1 UNK         0.0806 
    115 H115       26.6456    0.5110   -9.3792 H         1 UNK         0.3000 
    116 H116       27.0973    1.8530  -11.8546 H         1 UNK         0.0850 
    117 H117       26.8422   -0.4455  -12.8211 H         1 UNK         0.0810 
    118 H118       25.5803   -0.0897  -11.6513 H         1 UNK         0.0810 
    119 H119       26.9232   -1.1386  -11.2052 H         1 UNK         0.0810 
    120 H120       29.1479   -0.4561   -9.9918 H         1 UNK         0.3040 
    121 H121       31.2995   -0.3844  -11.9375 H         1 UNK         0.0766 
    122 H122       31.1074   -1.5306   -9.1118 H         1 UNK         0.0812 
    123 H123       32.4533   -1.8050  -10.2109 H         1 UNK         0.0812 
    124 H124       30.8518   -2.4065  -10.6151 H         1 UNK         0.0812 
    125 H125       30.4316    1.7236   -9.3806 H         1 UNK         0.3205 
    126 H126       31.2783    3.5066   -8.4159 H         1 UNK         0.0754 
    127 H127       33.0529    4.8497   -9.4737 H         1 UNK         0.0769 
    128 H128       31.9394    4.2726  -10.7031 H         1 UNK         0.0769 
    129 H129       33.5173    3.5097  -10.5096 H         1 UNK         0.0769 
    130 H130       31.6520    1.2620   -7.1241 H         1 UNK         0.2981 
    131 H131       34.4136    0.8186   -6.2896 H         1 UNK         0.0541 
    132 H132       35.2762    1.2024   -4.1291 H         1 UNK         0.3459 
    133 H133       34.5864    2.4528   -3.1280 H         1 UNK         0.3459 
    134 H134       31.8067   -0.3440   -5.1756 H         1 UNK         0.0612 
    135 H135       33.4109   -0.8208   -4.6825 H         1 UNK         0.0612 
    136 H136       33.5897   -3.9076   -6.7153 H         1 UNK         0.0624 
    137 H137       33.7989   -3.0913   -5.1924 H         1 UNK         0.0624 
@<TRIPOS>BOND
     1    1    2 1    
     2    1   72 1    
     3    1   73 1    
     4    1   74 1    
     5    2    3 2    
     6    2    4 am   BACKBONE|DICT|INTERRES
     7    4    5 1    
     8    4   75 1    
     9    5    6 1    
    10    5   35 1    
    11    5   76 1    
    12    6    7 1    
    13    6   77 1    
    14    6   78 1    
    15    7    8 1    
    16    8    9 1    
    17    8   79 1    
    18    8   80 1    
    19    9   10 ar   
    20    9   14 ar   
    21   10   11 ar   
    22   10   81 1    
    23   11   12 ar   
    24   11   71 1    
    25   12   13 ar   
    26   12   82 1    
    27   13   14 ar   
    28   13   15 1    
    29   14   83 1    
    30   15   16 1    
    31   15   84 1    
    32   15   85 1    
    33   16   17 1    
    34   17   18 1    
    35   17   86 1    
    36   17   87 1    
    37   18   19 1    
    38   18   37 1    
    39   18   88 1    
    40   19   20 am   BACKBONE|DICT|INTERRES
    41   19   89 1    
    42   20   21 2    
    43   20   22 1    
    44   22   23 1    
    45   22   24 1    
    46   22   90 1    
    47   23   91 1    
    48   23   92 1    
    49   23   93 1    
    50   24   25 am   BACKBONE|DICT|INTERRES
    51   24   94 1    
    52   25   26 2    
    53   25   27 1    
    54   27   28 1    
    55   27   29 1    
    56   27   95 1    
    57   28   96 1    
    58   28   97 1    
    59   28   98 1    
    60   29   30 am   BACKBONE|DICT|INTERRES
    61   29   99 1    
    62   30   31 2    
    63   30   32 1    
    64   32   33 1    
    65   32   34 1    
    66   32  100 1    
    67   33  101 1    
    68   33  102 1    
    69   33  103 1    
    70   34   35 am   BACKBONE|DICT|INTERRES
    71   34  104 1    
    72   35   36 2    
    73   37   38 2    
    74   37   39 am   BACKBONE|DICT|INTERRES
    75   39   40 1    
    76   39  105 1    
    77   40   41 1    
    78   40   42 1    
    79   40  106 1    
    80   41  107 1    
    81   41  108 1    
    82   41  109 1    
    83   42   43 2    
    84   42   44 am   BACKBONE|DICT|INTERRES
    85   44   45 1    
    86   44  110 1    
    87   45   46 1    
    88   45   47 1    
    89   45  111 1    
    90   46  112 1    
    91   46  113 1    
    92   46  114 1    
    93   47   48 2    
    94   47   49 am   BACKBONE|DICT|INTERRES
    95   49   50 1    
    96   49  115 1    
    97   50   51 1    
    98   50   52 1    
    99   50  116 1    
   100   51  117 1    
   101   51  118 1    
   102   51  119 1    
   103   52   53 2    
   104   52   54 am   BACKBONE|DICT|INTERRES
   105   54   55 1    
   106   54  120 1    
   107   55   56 1    
   108   55   57 1    
   109   55  121 1    
   110   56  122 1    
   111   56  123 1    
   112   56  124 1    
   113   57   58 2    
   114   57   59 am   BACKBONE|DICT|INTERRES
   115   59   60 1    
   116   59  125 1    
   117   60   61 1    
   118   60   62 1    
   119   60  126 1    
   120   61  127 1    
   121   61  128 1    
   122   61  129 1    
   123   62   63 2    
   124   62   64 am   BACKBONE|DICT|INTERRES
   125   64   65 1    
   126   64  130 1    
   127   65   66 1    
   128   65   69 1    
   129   65  131 1    
   130   66   67 am   BACKBONE|DICT|INTERRES
   131   66   68 2    
   132   67  132 1    
   133   67  133 1    
   134   69   70 1    
   135   69  134 1    
   136   69  135 1    
   137   70   71 1    
   138   71  136 1    
   139   71  137 1    
@<TRIPOS>SUBSTRUCTURE
     1 UNK         1 GROUP             0       ****    0 ROOT    
