@<TRIPOS>MOLECULE
3R137
137   139    1
SMALL
USER_CHARGES


@<TRIPOS>ATOM
      1 CA         30.8006    1.0874   -3.0849 C.3       0 UNK        -0.2020 
      2 C          29.9185   -0.1505   -3.1133 C.2       0 UNK         0.4855 
      3 O          29.4891   -0.5646   -4.1864 O.2       0 UNK        -0.5197 
      4 N          29.6504   -0.7399   -1.9428 N.am      1 UNK        -0.4892 
      5 CA         28.7209   -1.8595   -1.7649 C.3       1 UNK         0.0835 
      6 C6         29.2864   -2.8898   -0.7482 C.3       12 UNK        -0.0855 
      7 S7         28.5525   -4.5526   -0.9395 S.3       12 UNK        -0.2931 
      8 C8         29.9203   -5.5012   -1.6837 C.3       12 UNK         0.0378 
      9 C9         30.2357   -5.0499   -3.1036 C.ar      12 UNK        -0.0802 
     10 C10        31.4454   -4.4077   -3.3906 C.ar      12 UNK        -0.0944 
     11 C11        31.7423   -4.0063   -4.6968 C.ar      12 UNK        -0.0787 
     12 C12        30.8175   -4.2442   -5.7167 C.ar      12 UNK        -0.0862 
     13 C13        29.6018   -4.8777   -5.4424 C.ar      12 UNK        -0.0733 
     14 C14        29.3222   -5.2902   -4.1358 C.ar      12 UNK        -0.0832 
     15 C15        28.5877   -5.0955   -6.5597 C.3       12 UNK         0.0240 
     16 S16        27.0448   -4.1591   -6.2955 S.3       12 UNK        -0.2522 
     17 C17        27.6599   -2.4551   -6.0761 C.3       12 UNK        -0.0967 
     18 CA         27.0767   -1.4460   -7.0906 C.3       5 UNK         0.0660 
     19 N          25.6125   -1.4190   -7.0379 N.am      5 UNK        -0.4015 
     20 C          24.7775   -0.5214   -7.5820 C.2       4 UNK         0.4946 
     21 O          25.1288    0.3519   -8.3775 O.2       4 UNK        -0.5353 
     22 CA         23.3148   -0.5515   -7.0939 C.3       4 UNK         0.0277 
     23 CB         22.4068   -1.1540   -8.1775 C.3       4 UNK        -0.1981 
     24 N          23.1028   -1.2697   -5.8253 N.am      4 UNK        -0.4209 
     25 C          23.7218   -1.0181   -4.6600 C.2       3 UNK         0.4942 
     26 O          24.5336   -0.1009   -4.5000 O.2       3 UNK        -0.5208 
     27 CA         23.4461   -2.0052   -3.5165 C.3       3 UNK         0.0250 
     28 CB         23.7563   -3.4593   -3.9409 C.3       3 UNK        -0.1990 
     29 N          24.2738   -1.6392   -2.3700 N.am      3 UNK        -0.4232 
     30 C          24.1419   -2.0919   -1.1194 C.2       2 UNK         0.4993 
     31 O          23.2424   -2.8557   -0.7624 O.2       2 UNK        -0.5286 
     32 CA         25.2178   -1.6415   -0.1130 C.3       2 UNK         0.0209 
     33 CB         24.9969   -2.2241    1.2962 C.3       2 UNK        -0.1931 
     34 N          26.5596   -2.0164   -0.5705 N.am      2 UNK        -0.4546 
     35 C          27.3187   -1.3026   -1.4108 C.2       1 UNK         0.5154 
     36 O          26.9331   -0.2380   -1.9004 O.2       1 UNK        -0.5181 
     37 C          27.7253   -0.0689   -6.8419 C.2       5 UNK         0.5014 
     38 O          28.7196    0.2420   -7.4970 O.2       5 UNK        -0.5248 
     39 N          27.1361    0.7488   -5.9548 N.am      6 UNK        -0.4434 
     40 CA         27.5893    2.1071   -5.6448 C.3       6 UNK         0.0363 
     41 CB         26.7177    2.6817   -4.5181 C.3       6 UNK        -0.1936 
     42 C          27.6111    3.0585   -6.8577 C.2       6 UNK         0.5081 
     43 O          28.3949    4.0076   -6.8542 O.2       6 UNK        -0.5248 
     44 N          26.7793    2.7799   -7.8707 N.am      7 UNK        -0.4718 
     45 CA         26.7828    3.4621   -9.1633 C.3       7 UNK         0.0273 
     46 CB         25.3436    3.8637   -9.5264 C.3       7 UNK        -0.1935 
     47 C          27.3835    2.5699  -10.2610 C.2       7 UNK         0.5018 
     48 O          28.1494    3.0699  -11.0850 O.2       7 UNK        -0.5186 
     49 N          27.0109    1.2807  -10.2753 N.am      8 UNK        -0.4240 
     50 CA         27.3632    0.3271  -11.3313 C.3       8 UNK         0.0235 
     51 CB         26.4500   -0.9060  -11.2328 C.3       8 UNK        -0.2000 
     52 C          28.8427   -0.0937  -11.3417 C.2       8 UNK         0.4941 
     53 O          29.4034   -0.2648  -12.4253 O.2       8 UNK        -0.5273 
     54 N          29.4407   -0.2644  -10.1563 N.am      9 UNK        -0.4262 
     55 CA         30.8495   -0.6206   -9.9717 C.3       9 UNK         0.0264 
     56 CB         30.9671   -1.8043   -8.9927 C.3       9 UNK        -0.1955 
     57 C          31.6452    0.5877   -9.4614 C.2       9 UNK         0.5031 
     58 O          32.7304    0.8514   -9.9804 O.2       9 UNK        -0.5390 
     59 N          31.0857    1.2968   -8.4671 N.am      10 UNK        -0.4204 
     60 CA         31.6252    2.4923   -7.8068 C.3       10 UNK         0.0237 
     61 CB         31.5971    3.6991   -8.7680 C.3       10 UNK        -0.1985 
     62 C          33.0087    2.2550   -7.1665 C.2       10 UNK         0.4970 
     63 O          33.8996    3.0987   -7.2791 O.2       10 UNK        -0.4914 
     64 N          33.1579    1.0987   -6.5088 N.am      11 UNK        -0.4285 
     65 CA         34.3875    0.6325   -5.8465 C.3       11 UNK         0.1007 
     66 C          34.7857    1.3823   -4.5382 C.2       11 UNK         0.5703 
     67 N          34.0137    2.3479   -4.0538 N.am      11 UNK        -0.7361 
     68 O          35.8304    1.0930   -3.9591 O.2       11 UNK        -0.4986 
     69 C69        34.3733   -0.9112   -5.6688 C.3       12 UNK        -0.0947 
     70 S70        32.9138   -1.5193   -4.7599 S.3       12 UNK        -0.2240 
     71 C71        33.0568   -3.3107   -5.0146 C.3       12 UNK         0.0194 
     72 H72        31.4323    1.1145   -2.1973 H         1 UNK         0.0906 
     73 H73        31.4486    1.1004   -3.9595 H         1 UNK         0.0906 
     74 H74        30.1859    1.9867   -3.1028 H         1 UNK         0.0906 
     75 H75        30.0043   -0.3271   -1.0916 H         1 UNK         0.3140 
     76 H76        28.6089   -2.3748   -2.7221 H         1 UNK         0.1085 
     77 H77        30.3654   -2.9825   -0.8825 H         1 UNK         0.0836 
     78 H78        29.1553   -2.5493    0.2808 H         1 UNK         0.0836 
     79 H79        30.8013   -5.4286   -1.0438 H         1 UNK         0.0731 
     80 H80        29.6453   -6.5568   -1.7008 H         1 UNK         0.0731 
     81 H81        32.1575   -4.2169   -2.5993 H         1 UNK         0.1312 
     82 H82        31.0412   -3.9210   -6.7241 H         1 UNK         0.1406 
     83 H83        28.3822   -5.7792   -3.9178 H         1 UNK         0.1631 
     84 H84        28.3503   -6.1580   -6.6267 H         1 UNK         0.0717 
     85 H85        29.0070   -4.8127   -7.5266 H         1 UNK         0.0717 
     86 H86        27.4248   -2.1512   -5.0536 H         1 UNK         0.0934 
     87 H87        28.7489   -2.4455   -6.1400 H         1 UNK         0.0934 
     88 H88        27.3583   -1.7646   -8.0949 H         1 UNK         0.0739 
     89 H89        25.2035   -2.1106   -6.4284 H         1 UNK         0.3093 
     90 H90        23.0161    0.4862   -6.9322 H         1 UNK         0.0818 
     91 H91        21.3549   -1.0846   -7.8996 H         1 UNK         0.0819 
     92 H92        22.5237   -0.6237   -9.1240 H         1 UNK         0.0819 
     93 H93        22.6389   -2.2036   -8.3622 H         1 UNK         0.0819 
     94 H94        22.4486   -2.0387   -5.8593 H         1 UNK         0.3041 
     95 H95        22.3942   -1.9152   -3.2382 H         1 UNK         0.0784 
     96 H96        23.1469   -3.7769   -4.7873 H         1 UNK         0.0793 
     97 H97        24.8026   -3.5789   -4.2242 H         1 UNK         0.0793 
     98 H98        23.5536   -4.1640   -3.1344 H         1 UNK         0.0793 
     99 H99        25.0113   -0.9706   -2.5797 H         1 UNK         0.3024 
    100 H100       25.1504   -0.5535   -0.0366 H         1 UNK         0.1171 
    101 H101       25.7442   -1.8552    1.9990 H         1 UNK         0.0786 
    102 H102       24.0190   -1.9406    1.6881 H         1 UNK         0.0786 
    103 H103       25.0460   -3.3138    1.2958 H         1 UNK         0.0786 
    104 H104       26.9137   -2.9125   -0.2597 H         1 UNK         0.2977 
    105 H105       26.3158    0.4208   -5.4541 H         1 UNK         0.3127 
    106 H106       28.6151    2.0286   -5.2792 H         1 UNK         0.0770 
    107 H107       25.6696    2.7456   -4.8135 H         1 UNK         0.0814 
    108 H108       27.0442    3.6854   -4.2424 H         1 UNK         0.0814 
    109 H109       26.7750    2.0638   -3.6213 H         1 UNK         0.0814 
    110 H110       26.1818    1.9631   -7.7947 H         1 UNK         0.2983 
    111 H111       27.3847    4.3723   -9.1138 H         1 UNK         0.0947 
    112 H112       25.3107    4.3676  -10.4934 H         1 UNK         0.0806 
    113 H113       24.9285    4.5508   -8.7889 H         1 UNK         0.0806 
    114 H114       24.6824    2.9979   -9.5854 H         1 UNK         0.0806 
    115 H115       26.3466    0.9557   -9.5750 H         1 UNK         0.3000 
    116 H116       27.1613    0.8120  -12.2891 H         1 UNK         0.0850 
    117 H117       26.6605   -1.6131  -12.0364 H         1 UNK         0.0810 
    118 H118       25.3989   -0.6280  -11.3134 H         1 UNK         0.0810 
    119 H119       26.5823   -1.4358  -10.2901 H         1 UNK         0.0810 
    120 H120       28.9209   -0.0576   -9.3079 H         1 UNK         0.3040 
    121 H121       31.2903   -0.9307  -10.9216 H         1 UNK         0.0766 
    122 H122       30.5797   -1.5640   -8.0023 H         1 UNK         0.0812 
    123 H123       32.0092   -2.1013   -8.8674 H         1 UNK         0.0812 
    124 H124       30.4241   -2.6751   -9.3599 H         1 UNK         0.0812 
    125 H125       30.2006    0.9549   -8.0891 H         1 UNK         0.3205 
    126 H126       30.9458    2.7153   -6.9828 H         1 UNK         0.0754 
    127 H127       31.8852    4.6167   -8.2536 H         1 UNK         0.0769 
    128 H128       30.5964    3.8567   -9.1717 H         1 UNK         0.0769 
    129 H129       32.2808    3.5653   -9.6069 H         1 UNK         0.0769 
    130 H130       32.3725    0.4674   -6.4491 H         1 UNK         0.2981 
    131 H131       35.2037    0.8507   -6.5376 H         1 UNK         0.0541 
    132 H132       33.1799    2.6289   -4.5408 H         1 UNK         0.3459 
    133 H133       34.2956    2.8263   -3.2131 H         1 UNK         0.3459 
    134 H134       35.2774   -1.2626   -5.1684 H         1 UNK         0.0612 
    135 H135       34.3778   -1.3813   -6.6535 H         1 UNK         0.0612 
    136 H136       33.8575   -3.7030   -4.3861 H         1 UNK         0.0624 
    137 H137       33.3440   -3.5132   -6.0476 H         1 UNK         0.0624 
@<TRIPOS>BOND
     1    1    2 1    
     2    1   72 1    
     3    1   73 1    
     4    1   74 1    
     5    2    3 2    
     6    2    4 am   BACKBONE|DICT|INTERRES
     7    4    5 1    
     8    4   75 1    
     9    5    6 1    
    10    5   35 1    
    11    5   76 1    
    12    6    7 1    
    13    6   77 1    
    14    6   78 1    
    15    7    8 1    
    16    8    9 1    
    17    8   79 1    
    18    8   80 1    
    19    9   10 ar   
    20    9   14 ar   
    21   10   11 ar   
    22   10   81 1    
    23   11   12 ar   
    24   11   71 1    
    25   12   13 ar   
    26   12   82 1    
    27   13   14 ar   
    28   13   15 1    
    29   14   83 1    
    30   15   16 1    
    31   15   84 1    
    32   15   85 1    
    33   16   17 1    
    34   17   18 1    
    35   17   86 1    
    36   17   87 1    
    37   18   19 1    
    38   18   37 1    
    39   18   88 1    
    40   19   20 am   BACKBONE|DICT|INTERRES
    41   19   89 1    
    42   20   21 2    
    43   20   22 1    
    44   22   23 1    
    45   22   24 1    
    46   22   90 1    
    47   23   91 1    
    48   23   92 1    
    49   23   93 1    
    50   24   25 am   BACKBONE|DICT|INTERRES
    51   24   94 1    
    52   25   26 2    
    53   25   27 1    
    54   27   28 1    
    55   27   29 1    
    56   27   95 1    
    57   28   96 1    
    58   28   97 1    
    59   28   98 1    
    60   29   30 am   BACKBONE|DICT|INTERRES
    61   29   99 1    
    62   30   31 2    
    63   30   32 1    
    64   32   33 1    
    65   32   34 1    
    66   32  100 1    
    67   33  101 1    
    68   33  102 1    
    69   33  103 1    
    70   34   35 am   BACKBONE|DICT|INTERRES
    71   34  104 1    
    72   35   36 2    
    73   37   38 2    
    74   37   39 am   BACKBONE|DICT|INTERRES
    75   39   40 1    
    76   39  105 1    
    77   40   41 1    
    78   40   42 1    
    79   40  106 1    
    80   41  107 1    
    81   41  108 1    
    82   41  109 1    
    83   42   43 2    
    84   42   44 am   BACKBONE|DICT|INTERRES
    85   44   45 1    
    86   44  110 1    
    87   45   46 1    
    88   45   47 1    
    89   45  111 1    
    90   46  112 1    
    91   46  113 1    
    92   46  114 1    
    93   47   48 2    
    94   47   49 am   BACKBONE|DICT|INTERRES
    95   49   50 1    
    96   49  115 1    
    97   50   51 1    
    98   50   52 1    
    99   50  116 1    
   100   51  117 1    
   101   51  118 1    
   102   51  119 1    
   103   52   53 2    
   104   52   54 am   BACKBONE|DICT|INTERRES
   105   54   55 1    
   106   54  120 1    
   107   55   56 1    
   108   55   57 1    
   109   55  121 1    
   110   56  122 1    
   111   56  123 1    
   112   56  124 1    
   113   57   58 2    
   114   57   59 am   BACKBONE|DICT|INTERRES
   115   59   60 1    
   116   59  125 1    
   117   60   61 1    
   118   60   62 1    
   119   60  126 1    
   120   61  127 1    
   121   61  128 1    
   122   61  129 1    
   123   62   63 2    
   124   62   64 am   BACKBONE|DICT|INTERRES
   125   64   65 1    
   126   64  130 1    
   127   65   66 1    
   128   65   69 1    
   129   65  131 1    
   130   66   67 am   BACKBONE|DICT|INTERRES
   131   66   68 2    
   132   67  132 1    
   133   67  133 1    
   134   69   70 1    
   135   69  134 1    
   136   69  135 1    
   137   70   71 1    
   138   71  136 1    
   139   71  137 1    
@<TRIPOS>SUBSTRUCTURE
     1 UNK         1 GROUP             0       ****    0 ROOT    
