@<TRIPOS>MOLECULE
3R137
137   139    1
SMALL
USER_CHARGES


@<TRIPOS>ATOM
      1 CA         29.9883   -2.0893    3.5594 C.3       0 UNK        -0.2020 
      2 C          29.9702   -1.8163    2.0627 C.2       0 UNK         0.4855 
      3 O          30.9245   -1.2474    1.5318 O.2       0 UNK        -0.5197 
      4 N          28.8920   -2.2114    1.3811 N.am      1 UNK        -0.4892 
      5 CA         28.6754   -2.0326   -0.0536 C.3       1 UNK         0.0835 
      6 C6         29.5012   -3.0250   -0.9166 C.3       12 UNK        -0.0855 
      7 S7         29.1165   -4.7933   -0.6365 S.3       12 UNK        -0.2931 
      8 C8         30.5282   -5.6075   -1.4535 C.3       12 UNK         0.0378 
      9 C9         30.7195   -5.1108   -2.8794 C.ar      12 UNK        -0.0802 
     10 C10        31.8077   -4.2938   -3.1968 C.ar      12 UNK        -0.0944 
     11 C11        31.9586   -3.7815   -4.4878 C.ar      12 UNK        -0.0787 
     12 C12        31.0135   -4.0963   -5.4694 C.ar      12 UNK        -0.0862 
     13 C13        29.9204   -4.9155   -5.1632 C.ar      12 UNK        -0.0733 
     14 C14        29.7873   -5.4310   -3.8703 C.ar      12 UNK        -0.0832 
     15 C15        28.8674   -5.2303   -6.2175 C.3       12 UNK         0.0240 
     16 S16        27.2801   -4.4117   -5.8502 S.3       12 UNK        -0.2522 
     17 C17        27.7179   -2.6530   -6.0503 C.3       12 UNK        -0.0967 
     18 CA         26.8264   -1.9489   -7.0999 C.3       5 UNK         0.0660 
     19 N          25.4210   -1.8750   -6.7020 N.am      5 UNK        -0.4015 
     20 C          24.4075   -1.6360   -7.5465 C.2       4 UNK         0.4946 
     21 O          24.5328   -1.5557   -8.7688 O.2       4 UNK        -0.5353 
     22 CA         23.0181   -1.4231   -6.9204 C.3       4 UNK         0.0277 
     23 CB         22.2828   -2.7648   -6.7711 C.3       4 UNK        -0.1981 
     24 N          23.0675   -0.7449   -5.6218 N.am      4 UNK        -0.4209 
     25 C          23.5105    0.5069   -5.4310 C.2       3 UNK         0.4942 
     26 O          23.8965    1.2436   -6.3360 O.2       3 UNK        -0.5208 
     27 CA         23.5832    1.0031   -3.9786 C.3       3 UNK         0.0250 
     28 CB         22.2393    1.6110   -3.5471 C.3       3 UNK        -0.1990 
     29 N          23.9805   -0.0430   -3.0313 N.am      3 UNK        -0.4232 
     30 C          25.1620   -0.6747   -3.0456 C.2       2 UNK         0.4993 
     31 O          26.0527   -0.4619   -3.8746 O.2       2 UNK        -0.5286 
     32 CA         25.3592   -1.7659   -1.9927 C.3       2 UNK         0.0209 
     33 CB         25.0055   -3.1481   -2.5708 C.3       2 UNK        -0.1931 
     34 N          26.7513   -1.7559   -1.5536 N.am      2 UNK        -0.4546 
     35 C          27.1617   -2.1071   -0.3298 C.2       1 UNK         0.5154 
     36 O          26.3952   -2.4812    0.5653 O.2       1 UNK        -0.5181 
     37 C          27.3535   -0.5403   -7.4132 C.2       5 UNK         0.5014 
     38 O          27.8571   -0.3242   -8.5143 O.2       5 UNK        -0.5248 
     39 N          27.1917    0.3947   -6.4628 N.am      6 UNK        -0.4434 
     40 CA         27.6685    1.7799   -6.5570 C.3       6 UNK         0.0363 
     41 CB         27.3347    2.5239   -5.2551 C.3       6 UNK        -0.1936 
     42 C          27.1299    2.5537   -7.7744 C.2       6 UNK         0.5081 
     43 O          27.8677    3.3456   -8.3611 O.2       6 UNK        -0.5248 
     44 N          25.8691    2.2954   -8.1484 N.am      7 UNK        -0.4718 
     45 CA         25.2265    2.8392   -9.3466 C.3       7 UNK         0.0273 
     46 CB         23.7152    2.5672   -9.2790 C.3       7 UNK        -0.1935 
     47 C          25.8066    2.2917  -10.6633 C.2       7 UNK         0.5018 
     48 O          25.7199    2.9830  -11.6793 O.2       7 UNK        -0.5186 
     49 N          26.3733    1.0765  -10.6376 N.am      8 UNK        -0.4240 
     50 CA         27.0360    0.4586  -11.7854 C.3       8 UNK         0.0235 
     51 CB         26.9742   -1.0748  -11.6774 C.3       8 UNK        -0.2000 
     52 C          28.4822    0.9570  -11.9154 C.2       8 UNK         0.4941 
     53 O          28.8677    1.3911  -13.0021 O.2       8 UNK        -0.5273 
     54 N          29.2468    0.9132  -10.8158 N.am      9 UNK        -0.4262 
     55 CA         30.6227    1.4026  -10.7376 C.3       9 UNK         0.0264 
     56 CB         31.5837    0.4460  -11.4724 C.3       9 UNK        -0.1955 
     57 C          31.0402    1.5430   -9.2708 C.2       9 UNK         0.5031 
     58 O          30.6554    0.7152   -8.4438 O.2       9 UNK        -0.5390 
     59 N          31.8668    2.5544   -8.9795 N.am      10 UNK        -0.4204 
     60 CA         32.5086    2.7314   -7.6756 C.3       10 UNK         0.0237 
     61 CB         33.0906    4.1516   -7.5851 C.3       10 UNK        -0.1985 
     62 C          33.6103    1.6793   -7.4603 C.2       10 UNK         0.4970 
     63 O          34.2895    1.3028   -8.4191 O.2       10 UNK        -0.4914 
     64 N          33.7814    1.2476   -6.2063 N.am      11 UNK        -0.4285 
     65 CA         34.7737    0.2367   -5.8024 C.3       11 UNK         0.1007 
     66 C          36.2523    0.7268   -5.8181 C.2       11 UNK         0.5703 
     67 N          36.5269    2.0213   -5.9307 N.am      11 UNK        -0.7361 
     68 O          37.1686   -0.0875   -5.7326 O.2       11 UNK        -0.4986 
     69 C69        34.4211   -0.3998   -4.4325 C.3       12 UNK        -0.0947 
     70 S70        32.7569   -1.1469   -4.3874 S.3       12 UNK        -0.2240 
     71 C71        33.1376   -2.8757   -4.8047 C.3       12 UNK         0.0194 
     72 H72        30.8426   -2.7153    3.8158 H         1 UNK         0.0906 
     73 H73        30.0733   -1.1535    4.1111 H         1 UNK         0.0906 
     74 H74        29.0837   -2.5984    3.8918 H         1 UNK         0.0906 
     75 H75        28.0996   -2.6357    1.8500 H         1 UNK         0.3140 
     76 H76        28.9834   -1.0163   -0.3104 H         1 UNK         0.1085 
     77 H77        29.3606   -2.8057   -1.9767 H         1 UNK         0.0836 
     78 H78        30.5647   -2.8700   -0.7285 H         1 UNK         0.0836 
     79 H79        31.4278   -5.4383   -0.8595 H         1 UNK         0.0731 
     80 H80        30.3637   -6.6859   -1.4619 H         1 UNK         0.0731 
     81 H81        32.5278   -4.0343   -2.4325 H         1 UNK         0.1312 
     82 H82        31.1220   -3.6898   -6.4658 H         1 UNK         0.1406 
     83 H83        28.9349   -6.0501   -3.6242 H         1 UNK         0.1631 
     84 H84        28.7082   -6.3088   -6.2552 H         1 UNK         0.0717 
     85 H85        29.2057   -4.9351   -7.2120 H         1 UNK         0.0717 
     86 H86        27.6463   -2.1688   -5.0755 H         1 UNK         0.0934 
     87 H87        28.7662   -2.5752   -6.3432 H         1 UNK         0.0934 
     88 H88        26.8855   -2.5265   -8.0257 H         1 UNK         0.0739 
     89 H89        25.2353   -1.8990   -5.7106 H         1 UNK         0.3093 
     90 H90        22.4455   -0.7911   -7.6029 H         1 UNK         0.0818 
     91 H91        21.2644   -2.6219   -6.4093 H         1 UNK         0.0819 
     92 H92        22.2138   -3.2792   -7.7307 H         1 UNK         0.0819 
     93 H93        22.7958   -3.4343   -6.0793 H         1 UNK         0.0819 
     94 H94        22.7585   -1.2712   -4.8178 H         1 UNK         0.3041 
     95 H95        24.3392    1.7894   -3.9374 H         1 UNK         0.0784 
     96 H96        21.9350    2.4061   -4.2296 H         1 UNK         0.0793 
     97 H97        21.4411    0.8677   -3.5366 H         1 UNK         0.0793 
     98 H98        22.3035    2.0500   -2.5512 H         1 UNK         0.0793 
     99 H99        23.3041   -0.2861   -2.3212 H         1 UNK         0.3024 
    100 H100       24.7069   -1.5509   -1.1427 H         1 UNK         0.1171 
    101 H101       23.9726   -3.1788   -2.9196 H         1 UNK         0.0786 
    102 H102       25.1159   -3.9305   -1.8197 H         1 UNK         0.0786 
    103 H103       25.6460   -3.4070   -3.4147 H         1 UNK         0.0786 
    104 H104       27.4093   -1.4099   -2.2404 H         1 UNK         0.2977 
    105 H105       26.7530    0.1268   -5.5849 H         1 UNK         0.3127 
    106 H106       28.7551    1.7364   -6.6559 H         1 UNK         0.0770 
    107 H107       26.2580    2.6032   -5.1052 H         1 UNK         0.0814 
    108 H108       27.7374    3.5375   -5.2716 H         1 UNK         0.0814 
    109 H109       27.7589    2.0191   -4.3869 H         1 UNK         0.0814 
    110 H110       25.2968    1.6958   -7.5579 H         1 UNK         0.2983 
    111 H111       25.3802    3.9205   -9.3487 H         1 UNK         0.0947 
    112 H112       23.2038    2.9679  -10.1554 H         1 UNK         0.0806 
    113 H113       23.2675    3.0345   -8.4017 H         1 UNK         0.0806 
    114 H114       23.5015    1.4981   -9.2341 H         1 UNK         0.0806 
    115 H115       26.4671    0.5966   -9.7491 H         1 UNK         0.3000 
    116 H116       26.5010    0.7423  -12.6947 H         1 UNK         0.0850 
    117 H117       27.3972   -1.5419  -12.5676 H         1 UNK         0.0810 
    118 H118       25.9453   -1.4233  -11.5845 H         1 UNK         0.0810 
    119 H119       27.5307   -1.4524  -10.8200 H         1 UNK         0.0810 
    120 H120       28.8665    0.5425   -9.9445 H         1 UNK         0.3040 
    121 H121       30.6644    2.3883  -11.2061 H         1 UNK         0.0766 
    122 H122       32.6185    0.7769  -11.3727 H         1 UNK         0.0812 
    123 H123       31.3657    0.3934  -12.5389 H         1 UNK         0.0812 
    124 H124       31.5253   -0.5653  -11.0680 H         1 UNK         0.0812 
    125 H125       32.1794    3.1611   -9.7235 H         1 UNK         0.3205 
    126 H126       31.7486    2.6151   -6.8993 H         1 UNK         0.0754 
    127 H127       33.5421    4.3283   -6.6079 H         1 UNK         0.0769 
    128 H128       32.3163    4.9069   -7.7225 H         1 UNK         0.0769 
    129 H129       33.8629    4.3214   -8.3367 H         1 UNK         0.0769 
    130 H130       33.1904    1.6050   -5.4705 H         1 UNK         0.2981 
    131 H131       34.7285   -0.5634   -6.5440 H         1 UNK         0.0541 
    132 H132       35.7846    2.6975   -6.0037 H         1 UNK         0.3459 
    133 H133       37.4887    2.3221   -5.9437 H         1 UNK         0.3459 
    134 H134       34.4669    0.3560   -3.6464 H         1 UNK         0.0612 
    135 H135       35.1549   -1.1596   -4.1574 H         1 UNK         0.0612 
    136 H136       34.0118   -3.2089   -4.2432 H         1 UNK         0.0624 
    137 H137       33.4019   -2.9426   -5.8611 H         1 UNK         0.0624 
@<TRIPOS>BOND
     1    1    2 1    
     2    1   72 1    
     3    1   73 1    
     4    1   74 1    
     5    2    3 2    
     6    2    4 am   BACKBONE|DICT|INTERRES
     7    4    5 1    
     8    4   75 1    
     9    5    6 1    
    10    5   35 1    
    11    5   76 1    
    12    6    7 1    
    13    6   77 1    
    14    6   78 1    
    15    7    8 1    
    16    8    9 1    
    17    8   79 1    
    18    8   80 1    
    19    9   10 ar   
    20    9   14 ar   
    21   10   11 ar   
    22   10   81 1    
    23   11   12 ar   
    24   11   71 1    
    25   12   13 ar   
    26   12   82 1    
    27   13   14 ar   
    28   13   15 1    
    29   14   83 1    
    30   15   16 1    
    31   15   84 1    
    32   15   85 1    
    33   16   17 1    
    34   17   18 1    
    35   17   86 1    
    36   17   87 1    
    37   18   19 1    
    38   18   37 1    
    39   18   88 1    
    40   19   20 am   BACKBONE|DICT|INTERRES
    41   19   89 1    
    42   20   21 2    
    43   20   22 1    
    44   22   23 1    
    45   22   24 1    
    46   22   90 1    
    47   23   91 1    
    48   23   92 1    
    49   23   93 1    
    50   24   25 am   BACKBONE|DICT|INTERRES
    51   24   94 1    
    52   25   26 2    
    53   25   27 1    
    54   27   28 1    
    55   27   29 1    
    56   27   95 1    
    57   28   96 1    
    58   28   97 1    
    59   28   98 1    
    60   29   30 am   BACKBONE|DICT|INTERRES
    61   29   99 1    
    62   30   31 2    
    63   30   32 1    
    64   32   33 1    
    65   32   34 1    
    66   32  100 1    
    67   33  101 1    
    68   33  102 1    
    69   33  103 1    
    70   34   35 am   BACKBONE|DICT|INTERRES
    71   34  104 1    
    72   35   36 2    
    73   37   38 2    
    74   37   39 am   BACKBONE|DICT|INTERRES
    75   39   40 1    
    76   39  105 1    
    77   40   41 1    
    78   40   42 1    
    79   40  106 1    
    80   41  107 1    
    81   41  108 1    
    82   41  109 1    
    83   42   43 2    
    84   42   44 am   BACKBONE|DICT|INTERRES
    85   44   45 1    
    86   44  110 1    
    87   45   46 1    
    88   45   47 1    
    89   45  111 1    
    90   46  112 1    
    91   46  113 1    
    92   46  114 1    
    93   47   48 2    
    94   47   49 am   BACKBONE|DICT|INTERRES
    95   49   50 1    
    96   49  115 1    
    97   50   51 1    
    98   50   52 1    
    99   50  116 1    
   100   51  117 1    
   101   51  118 1    
   102   51  119 1    
   103   52   53 2    
   104   52   54 am   BACKBONE|DICT|INTERRES
   105   54   55 1    
   106   54  120 1    
   107   55   56 1    
   108   55   57 1    
   109   55  121 1    
   110   56  122 1    
   111   56  123 1    
   112   56  124 1    
   113   57   58 2    
   114   57   59 am   BACKBONE|DICT|INTERRES
   115   59   60 1    
   116   59  125 1    
   117   60   61 1    
   118   60   62 1    
   119   60  126 1    
   120   61  127 1    
   121   61  128 1    
   122   61  129 1    
   123   62   63 2    
   124   62   64 am   BACKBONE|DICT|INTERRES
   125   64   65 1    
   126   64  130 1    
   127   65   66 1    
   128   65   69 1    
   129   65  131 1    
   130   66   67 am   BACKBONE|DICT|INTERRES
   131   66   68 2    
   132   67  132 1    
   133   67  133 1    
   134   69   70 1    
   135   69  134 1    
   136   69  135 1    
   137   70   71 1    
   138   71  136 1    
   139   71  137 1    
@<TRIPOS>SUBSTRUCTURE
     1 UNK         1 GROUP             0       ****    0 ROOT    
