@<TRIPOS>MOLECULE
3R137
137   139    1
SMALL
USER_CHARGES


@<TRIPOS>ATOM
      1 CA         27.5618   -6.5518    1.7190 C.3       0 UNK        -0.2020 
      2 C          27.7356   -5.0589    1.9545 C.2       0 UNK         0.4855 
      3 O          28.5761   -4.6599    2.7608 O.2       0 UNK        -0.5197 
      4 N          26.9472   -4.2343    1.2598 N.am      1 UNK        -0.4892 
      5 CA         26.9347   -2.7750    1.3574 C.3       1 UNK         0.0835 
      6 C6         28.2008   -2.1071    0.7430 C.3       12 UNK        -0.0855 
      7 S7         28.3547   -2.2551   -1.0742 S.3       12 UNK        -0.2931 
      8 C8         29.5115   -3.6498   -1.2353 C.3       12 UNK         0.0378 
      9 C9         30.1502   -3.6577   -2.6148 C.ar      12 UNK        -0.0802 
     10 C10        31.3149   -2.9175   -2.8426 C.ar      12 UNK        -0.0944 
     11 C11        31.9031   -2.8927   -4.1095 C.ar      12 UNK        -0.0787 
     12 C12        31.3252   -3.6241   -5.1497 C.ar      12 UNK        -0.0862 
     13 C13        30.1555   -4.3609   -4.9383 C.ar      12 UNK        -0.0733 
     14 C14        29.5752   -4.3819   -3.6654 C.ar      12 UNK        -0.0832 
     15 C15        29.5081   -5.1008   -6.1027 C.3       12 UNK         0.0240 
     16 S16        28.0769   -4.2031   -6.7951 S.3       12 UNK        -0.2522 
     17 C17        28.7214   -2.4984   -6.9143 C.3       12 UNK        -0.0967 
     18 CA         27.8379   -1.5293   -7.7374 C.3       5 UNK         0.0660 
     19 N          26.4195   -1.6381   -7.3843 N.am      5 UNK        -0.4015 
     20 C          25.4120   -0.8496   -7.7872 C.2       4 UNK         0.4946 
     21 O          25.5368    0.0578   -8.6109 O.2       4 UNK        -0.5353 
     22 CA         24.0456   -1.0671   -7.1108 C.3       4 UNK         0.0277 
     23 CB         23.0975   -1.8194   -8.0577 C.3       4 UNK        -0.1981 
     24 N          24.1149   -1.7748   -5.8235 N.am      4 UNK        -0.4209 
     25 C          24.7847   -1.3539   -4.7398 C.2       3 UNK         0.4942 
     26 O          25.4357   -0.3061   -4.6951 O.2       3 UNK        -0.5208 
     27 CA         24.8074   -2.3233   -3.5500 C.3       3 UNK         0.0250 
     28 CB         25.9478   -3.3417   -3.7193 C.3       3 UNK        -0.1990 
     29 N          24.9931   -1.6192   -2.2835 N.am      3 UNK        -0.4232 
     30 C          24.0341   -0.9476   -1.6315 C.2       2 UNK         0.4993 
     31 O          22.8783   -0.8407   -2.0474 O.2       2 UNK        -0.5286 
     32 CA         24.4280   -0.3021   -0.2829 C.3       2 UNK         0.0209 
     33 CB         23.2250   -0.1388    0.6714 C.3       2 UNK        -0.1931 
     34 N          25.5421   -0.9831    0.3981 N.am      2 UNK        -0.4546 
     35 C          25.5917   -2.2666    0.7916 C.2       1 UNK         0.5154 
     36 O          24.6426   -3.0507    0.6937 O.2       1 UNK        -0.5181 
     37 C          28.3876   -0.0992   -7.5651 C.2       5 UNK         0.5014 
     38 O          29.1728    0.3488   -8.4009 O.2       5 UNK        -0.5248 
     39 N          27.9374    0.5996   -6.5106 N.am      6 UNK        -0.4434 
     40 CA         28.3048    1.9809   -6.1932 C.3       6 UNK         0.0363 
     41 CB         27.7159    2.3535   -4.8236 C.3       6 UNK        -0.1936 
     42 C          27.8756    3.0062   -7.2601 C.2       6 UNK         0.5081 
     43 O          28.5057    4.0585   -7.3593 O.2       6 UNK        -0.5248 
     44 N          26.8338    2.6866   -8.0388 N.am      7 UNK        -0.4718 
     45 CA         26.3787    3.4817   -9.1782 C.3       7 UNK         0.0273 
     46 CB         24.8418    3.5366   -9.1779 C.3       7 UNK        -0.1935 
     47 C          26.8963    2.8971  -10.5006 C.2       7 UNK         0.5018 
     48 O          27.3156    3.6599  -11.3714 O.2       7 UNK        -0.5186 
     49 N          26.8398    1.5641  -10.6369 N.am      8 UNK        -0.4240 
     50 CA         27.1711    0.8389  -11.8651 C.3       8 UNK         0.0235 
     51 CB         26.6390   -0.6002  -11.7656 C.3       8 UNK        -0.2000 
     52 C          28.6689    0.8368  -12.2128 C.2       8 UNK         0.4941 
     53 O          29.0050    0.9665  -13.3910 O.2       8 UNK        -0.5273 
     54 N          29.5313    0.6679  -11.2025 N.am      9 UNK        -0.4262 
     55 CA         30.9857    0.5547  -11.3581 C.3       9 UNK         0.0264 
     56 CB         31.4141   -0.8790  -10.9988 C.3       9 UNK        -0.1955 
     57 C          31.7592    1.5656  -10.4987 C.2       9 UNK         0.5031 
     58 O          32.8992    1.8847  -10.8400 O.2       9 UNK        -0.5390 
     59 N          31.1617    2.0138   -9.3835 N.am      10 UNK        -0.4204 
     60 CA         31.7323    2.9059   -8.3636 C.3       10 UNK         0.0237 
     61 CB         31.9932    4.3130   -8.9417 C.3       10 UNK        -0.1985 
     62 C          32.9624    2.3118   -7.6464 C.2       10 UNK         0.4970 
     63 O          33.7813    3.0647   -7.1167 O.2       10 UNK        -0.4914 
     64 N          33.0658    0.9744   -7.6494 N.am      11 UNK        -0.4285 
     65 CA         34.1778    0.1755   -7.1069 C.3       11 UNK         0.1007 
     66 C          35.5497    0.4148   -7.8112 C.2       11 UNK         0.5703 
     67 N          35.5827    0.9600   -9.0229 N.am      11 UNK        -0.7361 
     68 O          36.5994    0.0696   -7.2732 O.2       11 UNK        -0.4986 
     69 C69        34.2575    0.2287   -5.5532 C.3       12 UNK        -0.0947 
     70 S70        32.7091   -0.3457   -4.7765 S.3       12 UNK        -0.2240 
     71 C71        33.1495   -2.0616   -4.3655 C.3       12 UNK         0.0194 
     72 H72        26.7899   -6.7608    0.9783 H         1 UNK         0.0906 
     73 H73        28.4964   -6.9867    1.3657 H         1 UNK         0.0906 
     74 H74        27.2840   -7.0488    2.6481 H         1 UNK         0.0906 
     75 H75        26.2138   -4.6001    0.6642 H         1 UNK         0.3140 
     76 H76        26.9107   -2.5244    2.4204 H         1 UNK         0.1085 
     77 H77        28.2209   -1.0452    0.9923 H         1 UNK         0.0836 
     78 H78        29.0980   -2.5088    1.2151 H         1 UNK         0.0836 
     79 H79        30.2902   -3.5808   -0.4743 H         1 UNK         0.0731 
     80 H80        28.9806   -4.5850   -1.0512 H         1 UNK         0.0731 
     81 H81        31.7533   -2.3435   -2.0374 H         1 UNK         0.1312 
     82 H82        31.7732   -3.5971   -6.1337 H         1 UNK         0.1406 
     83 H83        28.6644   -4.9416   -3.5002 H         1 UNK         0.1631 
     84 H84        29.1825   -6.0891   -5.7751 H         1 UNK         0.0717 
     85 H85        30.2357   -5.2693   -6.8982 H         1 UNK         0.0717 
     86 H86        29.7242   -2.5361   -7.3447 H         1 UNK         0.0934 
     87 H87        28.8402   -2.1302   -5.8921 H         1 UNK         0.0934 
     88 H88        27.9239   -1.7946   -8.7920 H         1 UNK         0.0739 
     89 H89        26.2026   -2.3738   -6.7289 H         1 UNK         0.3093 
     90 H90        23.6260   -0.0775   -6.9183 H         1 UNK         0.0818 
     91 H91        22.0938   -1.8948   -7.6389 H         1 UNK         0.0819 
     92 H92        23.0081   -1.3003   -9.0134 H         1 UNK         0.0819 
     93 H93        23.4524   -2.8291   -8.2681 H         1 UNK         0.0819 
     94 H94        23.6212   -2.6549   -5.7719 H         1 UNK         0.3041 
     95 H95        23.8578   -2.8616   -3.5105 H         1 UNK         0.0784 
     96 H96        25.7989   -3.9573   -4.6070 H         1 UNK         0.0793 
     97 H97        26.9164   -2.8498   -3.8221 H         1 UNK         0.0793 
     98 H98        26.0070   -4.0182   -2.8662 H         1 UNK         0.0793 
     99 H99        25.9257   -1.6293   -1.8944 H         1 UNK         0.3024 
    100 H100       24.7862    0.6982   -0.5325 H         1 UNK         0.1171 
    101 H101       23.5221    0.3338    1.6076 H         1 UNK         0.0786 
    102 H102       22.7646   -1.0979    0.9105 H         1 UNK         0.0786 
    103 H103       22.4527    0.4893    0.2256 H         1 UNK         0.0786 
    104 H104       26.3825   -0.4309    0.5020 H         1 UNK         0.2977 
    105 H105       27.2555    0.1680   -5.8961 H         1 UNK         0.3127 
    106 H106       29.3928    2.0201   -6.1165 H         1 UNK         0.0770 
    107 H107       26.6259    2.3090   -4.8289 H         1 UNK         0.0814 
    108 H108       28.0007    3.3670   -4.5379 H         1 UNK         0.0814 
    109 H109       28.0740    1.6838   -4.0414 H         1 UNK         0.0814 
    110 H110       26.3886    1.7841   -7.9134 H         1 UNK         0.2983 
    111 H111       26.7507    4.5058   -9.0993 H         1 UNK         0.0947 
    112 H112       24.4725    4.1247  -10.0192 H         1 UNK         0.0806 
    113 H113       24.4642    4.0019   -8.2674 H         1 UNK         0.0806 
    114 H114       24.3978    2.5431   -9.2539 H         1 UNK         0.0806 
    115 H115       26.4334    1.0155   -9.8813 H         1 UNK         0.3000 
    116 H116       26.6480    1.3314  -12.6879 H         1 UNK         0.0850 
    117 H117       26.8354   -1.1542  -12.6846 H         1 UNK         0.0810 
    118 H118       25.5610   -0.6139  -11.6029 H         1 UNK         0.0810 
    119 H119       27.1059   -1.1485  -10.9477 H         1 UNK         0.0810 
    120 H120       29.1671    0.5616  -10.2596 H         1 UNK         0.3040 
    121 H121       31.2748    0.7458  -12.3936 H         1 UNK         0.0766 
    122 H122       32.4942   -1.0017  -11.0918 H         1 UNK         0.0812 
    123 H123       31.1403   -1.1394   -9.9756 H         1 UNK         0.0812 
    124 H124       30.9485   -1.6067  -11.6636 H         1 UNK         0.0812 
    125 H125       30.2722    1.5904   -9.1272 H         1 UNK         0.3205 
    126 H126       30.9710    3.0097   -7.5922 H         1 UNK         0.0754 
    127 H127       32.2744    5.0140   -8.1550 H         1 UNK         0.0769 
    128 H128       31.1001    4.7123   -9.4227 H         1 UNK         0.0769 
    129 H129       32.7988    4.3084   -9.6763 H         1 UNK         0.0769 
    130 H130       32.3352    0.4474   -8.1022 H         1 UNK         0.2981 
    131 H131       33.9348   -0.8544   -7.3703 H         1 UNK         0.0541 
    132 H132       34.7313    1.2469   -9.4859 H         1 UNK         0.3459 
    133 H133       36.4724    1.0992   -9.4749 H         1 UNK         0.3459 
    134 H134       34.4608    1.2447   -5.2125 H         1 UNK         0.0612 
    135 H135       35.0809   -0.3830   -5.1807 H         1 UNK         0.0612 
    136 H136       33.7249   -2.4983   -5.1834 H         1 UNK         0.0624 
    137 H137       33.7991   -2.0696   -3.4890 H         1 UNK         0.0624 
@<TRIPOS>BOND
     1    1    2 1    
     2    1   72 1    
     3    1   73 1    
     4    1   74 1    
     5    2    3 2    
     6    2    4 am   BACKBONE|DICT|INTERRES
     7    4    5 1    
     8    4   75 1    
     9    5    6 1    
    10    5   35 1    
    11    5   76 1    
    12    6    7 1    
    13    6   77 1    
    14    6   78 1    
    15    7    8 1    
    16    8    9 1    
    17    8   79 1    
    18    8   80 1    
    19    9   10 ar   
    20    9   14 ar   
    21   10   11 ar   
    22   10   81 1    
    23   11   12 ar   
    24   11   71 1    
    25   12   13 ar   
    26   12   82 1    
    27   13   14 ar   
    28   13   15 1    
    29   14   83 1    
    30   15   16 1    
    31   15   84 1    
    32   15   85 1    
    33   16   17 1    
    34   17   18 1    
    35   17   86 1    
    36   17   87 1    
    37   18   19 1    
    38   18   37 1    
    39   18   88 1    
    40   19   20 am   BACKBONE|DICT|INTERRES
    41   19   89 1    
    42   20   21 2    
    43   20   22 1    
    44   22   23 1    
    45   22   24 1    
    46   22   90 1    
    47   23   91 1    
    48   23   92 1    
    49   23   93 1    
    50   24   25 am   BACKBONE|DICT|INTERRES
    51   24   94 1    
    52   25   26 2    
    53   25   27 1    
    54   27   28 1    
    55   27   29 1    
    56   27   95 1    
    57   28   96 1    
    58   28   97 1    
    59   28   98 1    
    60   29   30 am   BACKBONE|DICT|INTERRES
    61   29   99 1    
    62   30   31 2    
    63   30   32 1    
    64   32   33 1    
    65   32   34 1    
    66   32  100 1    
    67   33  101 1    
    68   33  102 1    
    69   33  103 1    
    70   34   35 am   BACKBONE|DICT|INTERRES
    71   34  104 1    
    72   35   36 2    
    73   37   38 2    
    74   37   39 am   BACKBONE|DICT|INTERRES
    75   39   40 1    
    76   39  105 1    
    77   40   41 1    
    78   40   42 1    
    79   40  106 1    
    80   41  107 1    
    81   41  108 1    
    82   41  109 1    
    83   42   43 2    
    84   42   44 am   BACKBONE|DICT|INTERRES
    85   44   45 1    
    86   44  110 1    
    87   45   46 1    
    88   45   47 1    
    89   45  111 1    
    90   46  112 1    
    91   46  113 1    
    92   46  114 1    
    93   47   48 2    
    94   47   49 am   BACKBONE|DICT|INTERRES
    95   49   50 1    
    96   49  115 1    
    97   50   51 1    
    98   50   52 1    
    99   50  116 1    
   100   51  117 1    
   101   51  118 1    
   102   51  119 1    
   103   52   53 2    
   104   52   54 am   BACKBONE|DICT|INTERRES
   105   54   55 1    
   106   54  120 1    
   107   55   56 1    
   108   55   57 1    
   109   55  121 1    
   110   56  122 1    
   111   56  123 1    
   112   56  124 1    
   113   57   58 2    
   114   57   59 am   BACKBONE|DICT|INTERRES
   115   59   60 1    
   116   59  125 1    
   117   60   61 1    
   118   60   62 1    
   119   60  126 1    
   120   61  127 1    
   121   61  128 1    
   122   61  129 1    
   123   62   63 2    
   124   62   64 am   BACKBONE|DICT|INTERRES
   125   64   65 1    
   126   64  130 1    
   127   65   66 1    
   128   65   69 1    
   129   65  131 1    
   130   66   67 am   BACKBONE|DICT|INTERRES
   131   66   68 2    
   132   67  132 1    
   133   67  133 1    
   134   69   70 1    
   135   69  134 1    
   136   69  135 1    
   137   70   71 1    
   138   71  136 1    
   139   71  137 1    
@<TRIPOS>SUBSTRUCTURE
     1 UNK         1 GROUP             0       ****    0 ROOT    
