@<TRIPOS>MOLECULE
3R137
137   139    1
SMALL
USER_CHARGES


@<TRIPOS>ATOM
      1 CA         30.2645   -6.1425   -5.7732 C.3       0 UNK        -0.2020 
      2 C          29.5748   -6.3434   -4.4325 C.2       0 UNK         0.4855 
      3 O          30.1295   -6.9983   -3.5497 O.2       0 UNK        -0.5197 
      4 N          28.3691   -5.7915   -4.2753 N.am      1 UNK        -0.4892 
      5 CA         27.5283   -5.9008   -3.0852 C.3       1 UNK         0.0835 
      6 C6         28.0293   -5.0187   -1.9054 C.3       12 UNK        -0.0855 
      7 S7         27.9564   -3.2184   -2.2163 S.3       12 UNK        -0.2931 
      8 C8         29.7231   -2.8123   -2.3981 C.3       12 UNK         0.0378 
      9 C9         29.9481   -1.3312   -2.6808 C.ar      12 UNK        -0.0802 
     10 C10        30.7476   -0.9294   -3.7556 C.ar      12 UNK        -0.0944 
     11 C11        30.9894    0.4279   -3.9947 C.ar      12 UNK        -0.0787 
     12 C12        30.4085    1.3897   -3.1634 C.ar      12 UNK        -0.0862 
     13 C13        29.5922    1.0020   -2.0974 C.ar      12 UNK        -0.0733 
     14 C14        29.3835   -0.3580   -1.8507 C.ar      12 UNK        -0.0832 
     15 C15        28.9359    2.0408   -1.2008 C.3       12 UNK         0.0240 
     16 S16        27.1230    2.0058   -1.3675 S.3       12 UNK        -0.2522 
     17 C17        26.8291    3.1275   -2.7789 C.3       12 UNK        -0.0967 
     18 CA         27.1416    2.5403   -4.1829 C.3       5 UNK         0.0660 
     19 N          26.7232    1.1399   -4.3218 N.am      5 UNK        -0.4015 
     20 C          26.8646    0.3685   -5.4090 C.2       4 UNK         0.4946 
     21 O          27.3565    0.7745   -6.4618 O.2       4 UNK        -0.5353 
     22 CA         26.3631   -1.0879   -5.3470 C.3       4 UNK         0.0277 
     23 CB         27.4829   -2.0635   -5.7472 C.3       4 UNK        -0.1981 
     24 N          25.8024   -1.4954   -4.0536 N.am      4 UNK        -0.4209 
     25 C          24.6350   -1.0766   -3.5458 C.2       3 UNK         0.4942 
     26 O          23.8996   -0.2649   -4.1111 O.2       3 UNK        -0.5208 
     27 CA         24.2580   -1.6465   -2.1651 C.3       3 UNK         0.0250 
     28 CB         22.9345   -1.0735   -1.6139 C.3       3 UNK        -0.1990 
     29 N          24.2451   -3.1152   -2.1491 N.am      3 UNK        -0.4232 
     30 C          23.4689   -3.9368   -2.8757 C.2       2 UNK         0.4993 
     31 O          22.6051   -3.5549   -3.6673 O.2       2 UNK        -0.5286 
     32 CA         23.7075   -5.4484   -2.6661 C.3       2 UNK         0.0209 
     33 CB         23.0046   -6.3266   -3.7252 C.3       2 UNK        -0.1931 
     34 N          25.1350   -5.7900   -2.5601 N.am      2 UNK        -0.4546 
     35 C          26.0762   -5.5911   -3.4960 C.2       1 UNK         0.5154 
     36 O          25.8446   -5.1544   -4.6277 O.2       1 UNK        -0.5181 
     37 C          26.5581    3.4660   -5.2719 C.2       5 UNK         0.5014 
     38 O          27.2455    4.3839   -5.7206 O.2       5 UNK        -0.5248 
     39 N          25.3063    3.2024   -5.6762 N.am      6 UNK        -0.4434 
     40 CA         24.6045    3.9275   -6.7373 C.3       6 UNK         0.0363 
     41 CB         23.0955    3.6606   -6.6156 C.3       6 UNK        -0.1936 
     42 C          25.0995    3.5676   -8.1500 C.2       6 UNK         0.5081 
     43 O          24.9883    4.3991   -9.0514 O.2       6 UNK        -0.5248 
     44 N          25.6214    2.3459   -8.3271 N.am      7 UNK        -0.4718 
     45 CA         26.1954    1.8691   -9.5866 C.3       7 UNK         0.0273 
     46 CB         26.0544    0.3399   -9.6739 C.3       7 UNK        -0.1935 
     47 C          27.6668    2.2834   -9.7239 C.2       7 UNK         0.5018 
     48 O          28.0990    2.6118  -10.8287 O.2       7 UNK        -0.5186 
     49 N          28.4113    2.2343   -8.6086 N.am      8 UNK        -0.4240 
     50 CA         29.8214    2.6006   -8.4054 C.3       8 UNK         0.0235 
     51 CB         30.0585    4.0921   -8.7066 C.3       8 UNK        -0.2000 
     52 C          30.8505    1.7195   -9.1387 C.2       8 UNK         0.4941 
     53 O          31.9568    1.5529   -8.6257 O.2       8 UNK        -0.5273 
     54 N          30.4779    1.1410  -10.2893 N.am      9 UNK        -0.4262 
     55 CA         31.2958    0.2821  -11.1562 C.3       9 UNK         0.0264 
     56 CB         30.4473   -0.1730  -12.3542 C.3       9 UNK        -0.1955 
     57 C          31.9313   -0.9343  -10.4577 C.2       9 UNK         0.5031 
     58 O          32.9979   -1.3804  -10.8826 O.2       9 UNK        -0.5390 
     59 N          31.3057   -1.4104   -9.3713 N.am      10 UNK        -0.4204 
     60 CA         31.8294   -2.4327   -8.4590 C.3       10 UNK         0.0237 
     61 CB         30.7781   -2.7123   -7.3717 C.3       10 UNK        -0.1985 
     62 C          33.1820   -2.0699   -7.8113 C.2       10 UNK         0.4970 
     63 O          33.9343   -2.9770   -7.4543 O.2       10 UNK        -0.4914 
     64 N          33.4656   -0.7680   -7.6836 N.am      11 UNK        -0.4285 
     65 CA         34.7325   -0.2133   -7.1907 C.3       11 UNK         0.1007 
     66 C          35.7439    0.1069   -8.3311 C.2       11 UNK         0.5703 
     67 N          35.4530   -0.1781   -9.5965 N.am      11 UNK        -0.7361 
     68 O          36.8337    0.6070   -8.0618 O.2       11 UNK        -0.4986 
     69 C69        34.4783    1.0151   -6.2753 C.3       12 UNK        -0.0947 
     70 S70        33.6373    0.5556   -4.7244 S.3       12 UNK        -0.2240 
     71 C71        31.8914    0.8502   -5.1427 C.3       12 UNK         0.0194 
     72 H72        29.6785   -5.5125   -6.4420 H         1 UNK         0.0906 
     73 H73        31.2377   -5.6748   -5.6274 H         1 UNK         0.0906 
     74 H74        30.4194   -7.1037   -6.2624 H         1 UNK         0.0906 
     75 H75        27.9073   -5.3057   -5.0357 H         1 UNK         0.3140 
     76 H76        27.5426   -6.9457   -2.7665 H         1 UNK         0.1085 
     77 H77        29.0499   -5.3002   -1.6420 H         1 UNK         0.0836 
     78 H78        27.4443   -5.2245   -1.0078 H         1 UNK         0.0836 
     79 H79        30.1430   -3.4253   -3.1972 H         1 UNK         0.0731 
     80 H80        30.2526   -3.0812   -1.4831 H         1 UNK         0.0731 
     81 H81        31.2044   -1.6715   -4.3959 H         1 UNK         0.1312 
     82 H82        30.5910    2.4396   -3.3477 H         1 UNK         0.1406 
     83 H83        28.7645   -0.6592   -1.0163 H         1 UNK         0.1631 
     84 H84        29.3114    3.0436   -1.4096 H         1 UNK         0.0717 
     85 H85        29.1965    1.8259   -0.1635 H         1 UNK         0.0717 
     86 H86        25.7780    3.4179   -2.7149 H         1 UNK         0.0934 
     87 H87        27.3959    4.0474   -2.6216 H         1 UNK         0.0934 
     88 H88        28.2227    2.5481   -4.3219 H         1 UNK         0.0739 
     89 H89        26.3276    0.7234   -3.4925 H         1 UNK         0.3093 
     90 H90        25.5680   -1.1720   -6.0905 H         1 UNK         0.0818 
     91 H91        28.3237   -2.0187   -5.0557 H         1 UNK         0.0819 
     92 H92        27.1233   -3.0912   -5.7755 H         1 UNK         0.0819 
     93 H93        27.8662   -1.8323   -6.7416 H         1 UNK         0.0819 
     94 H94        26.3566   -2.1512   -3.5161 H         1 UNK         0.3041 
     95 H95        25.0525   -1.3392   -1.4827 H         1 UNK         0.0784 
     96 H96        22.9863    0.0128   -1.5301 H         1 UNK         0.0793 
     97 H97        22.0880   -1.3078   -2.2602 H         1 UNK         0.0793 
     98 H98        22.7162   -1.4645   -0.6202 H         1 UNK         0.0793 
     99 H99        24.9351   -3.5446   -1.5485 H         1 UNK         0.3024 
    100 H100       23.2590   -5.6866   -1.6999 H         1 UNK         0.1171 
    101 H101       23.1793   -7.3866   -3.5415 H         1 UNK         0.0786 
    102 H102       21.9253   -6.1700   -3.7076 H         1 UNK         0.0786 
    103 H103       23.3471   -6.0998   -4.7352 H         1 UNK         0.0786 
    104 H104       25.4242   -6.1615   -1.6652 H         1 UNK         0.2977 
    105 H105       24.8146    2.4303   -5.2474 H         1 UNK         0.3127 
    106 H106       24.7738    4.9969   -6.5929 H         1 UNK         0.0770 
    107 H107       22.8604    2.6023   -6.7370 H         1 UNK         0.0814 
    108 H108       22.5402    4.2073   -7.3792 H         1 UNK         0.0814 
    109 H109       22.7119    3.9818   -5.6470 H         1 UNK         0.0814 
    110 H110       25.7455    1.7484   -7.5200 H         1 UNK         0.2983 
    111 H111       25.6456    2.3072  -10.4230 H         1 UNK         0.0947 
    112 H112       26.4517   -0.0336  -10.6187 H         1 UNK         0.0806 
    113 H113       25.0089    0.0359   -9.6209 H         1 UNK         0.0806 
    114 H114       26.5914   -0.1682   -8.8723 H         1 UNK         0.0806 
    115 H115       27.9616    1.8395   -7.7824 H         1 UNK         0.3000 
    116 H116       30.0016    2.4509   -7.3395 H         1 UNK         0.0850 
    117 H117       31.0799    4.3818   -8.4558 H         1 UNK         0.0810 
    118 H118       29.3892    4.7230   -8.1211 H         1 UNK         0.0810 
    119 H119       29.9049    4.3254   -9.7606 H         1 UNK         0.0810 
    120 H120       29.5687    1.4160  -10.6503 H         1 UNK         0.3040 
    121 H121       32.1158    0.8981  -11.5307 H         1 UNK         0.0766 
    122 H122       31.0328   -0.7911  -13.0366 H         1 UNK         0.0812 
    123 H123       30.0794    0.6788  -12.9268 H         1 UNK         0.0812 
    124 H124       29.5855   -0.7618  -12.0375 H         1 UNK         0.0812 
    125 H125       30.4335   -0.9752   -9.1101 H         1 UNK         0.3205 
    126 H126       31.9830   -3.3460   -9.0374 H         1 UNK         0.0754 
    127 H127       30.5011   -1.8048   -6.8343 H         1 UNK         0.0769 
    128 H128       31.1556   -3.4213   -6.6346 H         1 UNK         0.0769 
    129 H129       29.8710   -3.1406   -7.7985 H         1 UNK         0.0769 
    130 H130       32.8104   -0.0765   -8.0372 H         1 UNK         0.2981 
    131 H131       35.2317   -0.9692   -6.5819 H         1 UNK         0.0541 
    132 H132       34.5754   -0.6153   -9.8526 H         1 UNK         0.3459 
    133 H133       36.1311    0.0325  -10.3110 H         1 UNK         0.3459 
    134 H134       33.9060    1.7841   -6.7963 H         1 UNK         0.0612 
    135 H135       35.4214    1.4837   -5.9888 H         1 UNK         0.0612 
    136 H136       31.6182    0.2915   -6.0370 H         1 UNK         0.0624 
    137 H137       31.7505    1.9054   -5.3816 H         1 UNK         0.0624 
@<TRIPOS>BOND
     1    1    2 1    
     2    1   72 1    
     3    1   73 1    
     4    1   74 1    
     5    2    3 2    
     6    2    4 am   BACKBONE|DICT|INTERRES
     7    4    5 1    
     8    4   75 1    
     9    5    6 1    
    10    5   35 1    
    11    5   76 1    
    12    6    7 1    
    13    6   77 1    
    14    6   78 1    
    15    7    8 1    
    16    8    9 1    
    17    8   79 1    
    18    8   80 1    
    19    9   10 ar   
    20    9   14 ar   
    21   10   11 ar   
    22   10   81 1    
    23   11   12 ar   
    24   11   71 1    
    25   12   13 ar   
    26   12   82 1    
    27   13   14 ar   
    28   13   15 1    
    29   14   83 1    
    30   15   16 1    
    31   15   84 1    
    32   15   85 1    
    33   16   17 1    
    34   17   18 1    
    35   17   86 1    
    36   17   87 1    
    37   18   19 1    
    38   18   37 1    
    39   18   88 1    
    40   19   20 am   BACKBONE|DICT|INTERRES
    41   19   89 1    
    42   20   21 2    
    43   20   22 1    
    44   22   23 1    
    45   22   24 1    
    46   22   90 1    
    47   23   91 1    
    48   23   92 1    
    49   23   93 1    
    50   24   25 am   BACKBONE|DICT|INTERRES
    51   24   94 1    
    52   25   26 2    
    53   25   27 1    
    54   27   28 1    
    55   27   29 1    
    56   27   95 1    
    57   28   96 1    
    58   28   97 1    
    59   28   98 1    
    60   29   30 am   BACKBONE|DICT|INTERRES
    61   29   99 1    
    62   30   31 2    
    63   30   32 1    
    64   32   33 1    
    65   32   34 1    
    66   32  100 1    
    67   33  101 1    
    68   33  102 1    
    69   33  103 1    
    70   34   35 am   BACKBONE|DICT|INTERRES
    71   34  104 1    
    72   35   36 2    
    73   37   38 2    
    74   37   39 am   BACKBONE|DICT|INTERRES
    75   39   40 1    
    76   39  105 1    
    77   40   41 1    
    78   40   42 1    
    79   40  106 1    
    80   41  107 1    
    81   41  108 1    
    82   41  109 1    
    83   42   43 2    
    84   42   44 am   BACKBONE|DICT|INTERRES
    85   44   45 1    
    86   44  110 1    
    87   45   46 1    
    88   45   47 1    
    89   45  111 1    
    90   46  112 1    
    91   46  113 1    
    92   46  114 1    
    93   47   48 2    
    94   47   49 am   BACKBONE|DICT|INTERRES
    95   49   50 1    
    96   49  115 1    
    97   50   51 1    
    98   50   52 1    
    99   50  116 1    
   100   51  117 1    
   101   51  118 1    
   102   51  119 1    
   103   52   53 2    
   104   52   54 am   BACKBONE|DICT|INTERRES
   105   54   55 1    
   106   54  120 1    
   107   55   56 1    
   108   55   57 1    
   109   55  121 1    
   110   56  122 1    
   111   56  123 1    
   112   56  124 1    
   113   57   58 2    
   114   57   59 am   BACKBONE|DICT|INTERRES
   115   59   60 1    
   116   59  125 1    
   117   60   61 1    
   118   60   62 1    
   119   60  126 1    
   120   61  127 1    
   121   61  128 1    
   122   61  129 1    
   123   62   63 2    
   124   62   64 am   BACKBONE|DICT|INTERRES
   125   64   65 1    
   126   64  130 1    
   127   65   66 1    
   128   65   69 1    
   129   65  131 1    
   130   66   67 am   BACKBONE|DICT|INTERRES
   131   66   68 2    
   132   67  132 1    
   133   67  133 1    
   134   69   70 1    
   135   69  134 1    
   136   69  135 1    
   137   70   71 1    
   138   71  136 1    
   139   71  137 1    
@<TRIPOS>SUBSTRUCTURE
     1 UNK         1 GROUP             0       ****    0 ROOT    
