@<TRIPOS>MOLECULE
3R137
137   139    1
SMALL
USER_CHARGES


@<TRIPOS>ATOM
      1 CA         27.8579   -6.1873   -6.6051 C.3       0 UNK        -0.2020 
      2 C          26.6528   -6.2711   -5.6800 C.2       0 UNK         0.4855 
      3 O          25.7699   -7.1011   -5.8938 O.2       0 UNK        -0.5197 
      4 N          26.6052   -5.4090   -4.6568 N.am      1 UNK        -0.4892 
      5 CA         25.5287   -5.3270   -3.6589 C.3       1 UNK         0.0835 
      6 C6         26.0418   -4.7775   -2.3005 C.3       12 UNK        -0.0855 
      7 S7         27.0209   -3.2403   -2.4306 S.3       12 UNK        -0.2931 
      8 C8         28.7018   -3.8863   -2.1550 C.3       12 UNK         0.0378 
      9 C9         29.7347   -2.7894   -2.3452 C.ar      12 UNK        -0.0802 
     10 C10        30.1655   -2.4509   -3.6300 C.ar      12 UNK        -0.0944 
     11 C11        31.0673   -1.4013   -3.8221 C.ar      12 UNK        -0.0787 
     12 C12        31.5689   -0.7085   -2.7158 C.ar      12 UNK        -0.0862 
     13 C13        31.1200   -1.0212   -1.4273 C.ar      12 UNK        -0.0733 
     14 C14        30.2216   -2.0778   -1.2458 C.ar      12 UNK        -0.0832 
     15 C15        31.5071   -0.1469   -0.2442 C.3       12 UNK         0.0240 
     16 S16        30.0847    0.8483    0.3297 S.3       12 UNK        -0.2522 
     17 C17        29.7695    1.9497   -1.0964 C.3       12 UNK        -0.0967 
     18 CA         28.8079    1.3346   -2.1531 C.3       5 UNK         0.0660 
     19 N          27.5140    0.9042   -1.6232 N.am      5 UNK        -0.4015 
     20 C          26.4841    1.6727   -1.2551 C.2       4 UNK         0.4946 
     21 O          26.5016    2.9050   -1.2271 O.2       4 UNK        -0.5353 
     22 CA         25.1957    0.9080   -0.9005 C.3       4 UNK         0.0277 
     23 CB         24.4159    1.6077    0.2276 C.3       4 UNK        -0.1981 
     24 N          24.2986    0.7063   -2.0461 N.am      4 UNK        -0.4209 
     25 C          24.5991    0.1384   -3.2238 C.2       3 UNK         0.4942 
     26 O          25.7287   -0.2164   -3.5718 O.2       3 UNK        -0.5208 
     27 CA         23.4339   -0.0756   -4.1908 C.3       3 UNK         0.0250 
     28 CB         23.3203    1.0835   -5.1965 C.3       3 UNK        -0.1990 
     29 N          23.6643   -1.3394   -4.8831 N.am      3 UNK        -0.4232 
     30 C          22.7291   -2.0747   -5.4936 C.2       2 UNK         0.4993 
     31 O          21.5518   -1.7291   -5.6032 O.2       2 UNK        -0.5286 
     32 CA         23.1643   -3.4313   -6.0748 C.3       2 UNK         0.0209 
     33 CB         23.4735   -3.3119   -7.5764 C.3       2 UNK        -0.1931 
     34 N          24.3094   -4.0418   -5.3903 N.am      2 UNK        -0.4546 
     35 C          24.2661   -4.5886   -4.1656 C.2       1 UNK         0.5154 
     36 O          23.2622   -4.5583   -3.4518 O.2       1 UNK        -0.5181 
     37 C          28.6920    2.1656   -3.4490 C.2       5 UNK         0.5014 
     38 O          29.4763    3.0926   -3.6612 O.2       5 UNK        -0.5248 
     39 N          27.7311    1.7990   -4.3066 N.am      6 UNK        -0.4434 
     40 CA         27.4912    2.4137   -5.6130 C.3       6 UNK         0.0363 
     41 CB         26.4968    3.5810   -5.4579 C.3       6 UNK        -0.1936 
     42 C          27.0231    1.3632   -6.6341 C.2       6 UNK         0.5081 
     43 O          26.3012    1.7031   -7.5718 O.2       6 UNK        -0.5248 
     44 N          27.4136    0.0971   -6.4239 N.am      7 UNK        -0.4718 
     45 CA         26.9443   -1.0601   -7.1907 C.3       7 UNK         0.0273 
     46 CB         27.3631   -2.3474   -6.4636 C.3       7 UNK        -0.1935 
     47 C          27.4100   -1.0944   -8.6578 C.2       7 UNK         0.5018 
     48 O          26.7243   -1.6959   -9.4853 O.2       7 UNK        -0.5186 
     49 N          28.5496   -0.4608   -8.9566 N.am      8 UNK        -0.4240 
     50 CA         29.1153   -0.3223  -10.2951 C.3       8 UNK         0.0235 
     51 CB         29.8596   -1.6092  -10.6991 C.3       8 UNK        -0.2000 
     52 C          30.0646    0.8774  -10.2937 C.2       8 UNK         0.4941 
     53 O          30.6817    1.1570   -9.2626 O.2       8 UNK        -0.5273 
     54 N          30.2010    1.5384  -11.4506 N.am      9 UNK        -0.4262 
     55 CA         31.0641    2.7110  -11.6400 C.3       9 UNK         0.0264 
     56 CB         30.7594    3.3578  -13.0012 C.3       9 UNK        -0.1955 
     57 C          32.5668    2.4016  -11.5144 C.2       9 UNK         0.5031 
     58 O          33.3220    3.2593  -11.0557 O.2       9 UNK        -0.5390 
     59 N          32.9706    1.1853  -11.9090 N.am      10 UNK        -0.4204 
     60 CA         34.3376    0.6770  -11.7578 C.3       10 UNK         0.0237 
     61 CB         34.5316   -0.5416  -12.6752 C.3       10 UNK        -0.1985 
     62 C          34.6796    0.3140  -10.3012 C.2       10 UNK         0.4970 
     63 O          35.8433    0.4152   -9.9116 O.2       10 UNK        -0.4914 
     64 N          33.6658   -0.1056   -9.5347 N.am      11 UNK        -0.4285 
     65 CA         33.7539   -0.3932   -8.1000 C.3       11 UNK         0.1007 
     66 C          33.7546    0.9158   -7.2633 C.2       11 UNK         0.5703 
     67 N          32.8118    1.8220   -7.4919 N.am      11 UNK        -0.7361 
     68 O          34.6209    1.1149   -6.4153 O.2       11 UNK        -0.4986 
     69 C69        32.6302   -1.3806   -7.6911 C.3       12 UNK        -0.0947 
     70 S70        32.7237   -1.9772   -5.9701 S.3       12 UNK        -0.2240 
     71 C71        31.4153   -0.9575   -5.2314 C.3       12 UNK         0.0194 
     72 H72        28.3709   -7.1480   -6.6393 H         1 UNK         0.0906 
     73 H73        27.5385   -5.9361   -7.6162 H         1 UNK         0.0906 
     74 H74        28.5742   -5.4338   -6.2779 H         1 UNK         0.0906 
     75 H75        27.3520   -4.7425   -4.5221 H         1 UNK         0.3140 
     76 H76        25.1870   -6.3470   -3.4669 H         1 UNK         0.1085 
     77 H77        25.2147   -4.6030   -1.6095 H         1 UNK         0.0836 
     78 H78        26.6517   -5.5424   -1.8172 H         1 UNK         0.0836 
     79 H79        28.7700   -4.3039   -1.1491 H         1 UNK         0.0731 
     80 H80        28.9041   -4.7068   -2.8450 H         1 UNK         0.0731 
     81 H81        29.7709   -2.9822   -4.4845 H         1 UNK         0.1312 
     82 H82        32.2438    0.1235   -2.8650 H         1 UNK         0.1406 
     83 H83        29.8588   -2.3067   -0.2526 H         1 UNK         0.1631 
     84 H84        32.3374    0.5144   -0.4970 H         1 UNK         0.0717 
     85 H85        31.8536   -0.7790    0.5746 H         1 UNK         0.0717 
     86 H86        29.3577    2.8878   -0.7206 H         1 UNK         0.0934 
     87 H87        30.7305    2.2028   -1.5478 H         1 UNK         0.0934 
     88 H88        29.2415    0.4069   -2.5062 H         1 UNK         0.0739 
     89 H89        27.3529   -0.0932   -1.6678 H         1 UNK         0.3093 
     90 H90        25.4818   -0.0810   -0.5357 H         1 UNK         0.0818 
     91 H91        23.5725    1.0041    0.5633 H         1 UNK         0.0819 
     92 H92        25.0549    1.7783    1.0953 H         1 UNK         0.0819 
     93 H93        24.0308    2.5783   -0.0879 H         1 UNK         0.0819 
     94 H94        23.3412    0.9903   -1.8964 H         1 UNK         0.3041 
     95 H95        22.5083   -0.1515   -3.6160 H         1 UNK         0.0784 
     96 H96        22.4491    0.9664   -5.8409 H         1 UNK         0.0793 
     97 H97        23.2168    2.0409   -4.6845 H         1 UNK         0.0793 
     98 H98        24.1991    1.1451   -5.8372 H         1 UNK         0.0793 
     99 H99        24.6074   -1.6962   -4.7922 H         1 UNK         0.3024 
    100 H100       22.3126   -4.1065   -5.9621 H         1 UNK         0.1171 
    101 H101       24.3417   -2.6826   -7.7674 H         1 UNK         0.0786 
    102 H102       22.6311   -2.8749   -8.1146 H         1 UNK         0.0786 
    103 H103       23.6652   -4.2892   -8.0198 H         1 UNK         0.0786 
    104 H104       25.1636   -4.1408   -5.9168 H         1 UNK         0.2977 
    105 H105       27.0980    1.0436   -4.0456 H         1 UNK         0.3127 
    106 H106       28.4299    2.8110   -6.0053 H         1 UNK         0.0770 
    107 H107       25.5321    3.2375   -5.0840 H         1 UNK         0.0814 
    108 H108       26.3221    4.0822   -6.4107 H         1 UNK         0.0814 
    109 H109       26.8743    4.3324   -4.7643 H         1 UNK         0.0814 
    110 H110       28.0089   -0.0951   -5.6321 H         1 UNK         0.2983 
    111 H111       25.8539   -1.0113   -7.2028 H         1 UNK         0.0947 
    112 H112       26.9665   -3.2252   -6.9746 H         1 UNK         0.0806 
    113 H113       26.9906   -2.3644   -5.4392 H         1 UNK         0.0806 
    114 H114       28.4475   -2.4544   -6.4324 H         1 UNK         0.0806 
    115 H115       29.0423    0.0508   -8.2357 H         1 UNK         0.3000 
    116 H116       28.3069   -0.1270  -11.0032 H         1 UNK         0.0850 
    117 H117       30.6590   -1.8516   -9.9987 H         1 UNK         0.0810 
    118 H118       29.1831   -2.4632  -10.7372 H         1 UNK         0.0810 
    119 H119       30.3076   -1.5121  -11.6887 H         1 UNK         0.0810 
    120 H120       29.6610    1.2400  -12.2510 H         1 UNK         0.3040 
    121 H121       30.8169    3.4331  -10.8585 H         1 UNK         0.0766 
    122 H122       29.7171    3.6704  -13.0682 H         1 UNK         0.0812 
    123 H123       30.9608    2.6764  -13.8288 H         1 UNK         0.0812 
    124 H124       31.3719    4.2474  -13.1558 H         1 UNK         0.0812 
    125 H125       32.2866    0.5587  -12.3073 H         1 UNK         0.3205 
    126 H126       35.0329    1.4572  -12.0758 H         1 UNK         0.0754 
    127 H127       35.5500   -0.9262  -12.6018 H         1 UNK         0.0769 
    128 H128       34.3603   -0.2827  -13.7203 H         1 UNK         0.0769 
    129 H129       33.8560   -1.3577  -12.4152 H         1 UNK         0.0769 
    130 H130       32.7356   -0.0950   -9.9225 H         1 UNK         0.2981 
    131 H131       34.7066   -0.8946   -7.9172 H         1 UNK         0.0541 
    132 H132       32.8118    2.6794   -6.9644 H         1 UNK         0.3459 
    133 H133       32.0750    1.6436   -8.1706 H         1 UNK         0.3459 
    134 H134       32.6785   -2.2639   -8.3297 H         1 UNK         0.0612 
    135 H135       31.6492   -0.9416   -7.8757 H         1 UNK         0.0612 
    136 H136       30.5188   -1.0100   -5.8508 H         1 UNK         0.0624 
    137 H137       31.7258    0.0882   -5.2336 H         1 UNK         0.0624 
@<TRIPOS>BOND
     1    1    2 1    
     2    1   72 1    
     3    1   73 1    
     4    1   74 1    
     5    2    3 2    
     6    2    4 am   BACKBONE|DICT|INTERRES
     7    4    5 1    
     8    4   75 1    
     9    5    6 1    
    10    5   35 1    
    11    5   76 1    
    12    6    7 1    
    13    6   77 1    
    14    6   78 1    
    15    7    8 1    
    16    8    9 1    
    17    8   79 1    
    18    8   80 1    
    19    9   10 ar   
    20    9   14 ar   
    21   10   11 ar   
    22   10   81 1    
    23   11   12 ar   
    24   11   71 1    
    25   12   13 ar   
    26   12   82 1    
    27   13   14 ar   
    28   13   15 1    
    29   14   83 1    
    30   15   16 1    
    31   15   84 1    
    32   15   85 1    
    33   16   17 1    
    34   17   18 1    
    35   17   86 1    
    36   17   87 1    
    37   18   19 1    
    38   18   37 1    
    39   18   88 1    
    40   19   20 am   BACKBONE|DICT|INTERRES
    41   19   89 1    
    42   20   21 2    
    43   20   22 1    
    44   22   23 1    
    45   22   24 1    
    46   22   90 1    
    47   23   91 1    
    48   23   92 1    
    49   23   93 1    
    50   24   25 am   BACKBONE|DICT|INTERRES
    51   24   94 1    
    52   25   26 2    
    53   25   27 1    
    54   27   28 1    
    55   27   29 1    
    56   27   95 1    
    57   28   96 1    
    58   28   97 1    
    59   28   98 1    
    60   29   30 am   BACKBONE|DICT|INTERRES
    61   29   99 1    
    62   30   31 2    
    63   30   32 1    
    64   32   33 1    
    65   32   34 1    
    66   32  100 1    
    67   33  101 1    
    68   33  102 1    
    69   33  103 1    
    70   34   35 am   BACKBONE|DICT|INTERRES
    71   34  104 1    
    72   35   36 2    
    73   37   38 2    
    74   37   39 am   BACKBONE|DICT|INTERRES
    75   39   40 1    
    76   39  105 1    
    77   40   41 1    
    78   40   42 1    
    79   40  106 1    
    80   41  107 1    
    81   41  108 1    
    82   41  109 1    
    83   42   43 2    
    84   42   44 am   BACKBONE|DICT|INTERRES
    85   44   45 1    
    86   44  110 1    
    87   45   46 1    
    88   45   47 1    
    89   45  111 1    
    90   46  112 1    
    91   46  113 1    
    92   46  114 1    
    93   47   48 2    
    94   47   49 am   BACKBONE|DICT|INTERRES
    95   49   50 1    
    96   49  115 1    
    97   50   51 1    
    98   50   52 1    
    99   50  116 1    
   100   51  117 1    
   101   51  118 1    
   102   51  119 1    
   103   52   53 2    
   104   52   54 am   BACKBONE|DICT|INTERRES
   105   54   55 1    
   106   54  120 1    
   107   55   56 1    
   108   55   57 1    
   109   55  121 1    
   110   56  122 1    
   111   56  123 1    
   112   56  124 1    
   113   57   58 2    
   114   57   59 am   BACKBONE|DICT|INTERRES
   115   59   60 1    
   116   59  125 1    
   117   60   61 1    
   118   60   62 1    
   119   60  126 1    
   120   61  127 1    
   121   61  128 1    
   122   61  129 1    
   123   62   63 2    
   124   62   64 am   BACKBONE|DICT|INTERRES
   125   64   65 1    
   126   64  130 1    
   127   65   66 1    
   128   65   69 1    
   129   65  131 1    
   130   66   67 am   BACKBONE|DICT|INTERRES
   131   66   68 2    
   132   67  132 1    
   133   67  133 1    
   134   69   70 1    
   135   69  134 1    
   136   69  135 1    
   137   70   71 1    
   138   71  136 1    
   139   71  137 1    
@<TRIPOS>SUBSTRUCTURE
     1 UNK         1 GROUP             0       ****    0 ROOT    
