@<TRIPOS>MOLECULE
3R137
137   139    1
SMALL
USER_CHARGES


@<TRIPOS>ATOM
      1 CA         27.6138   -5.6894    1.1374 C.3       0 UNK        -0.2020 
      2 C          27.7694   -4.1809    1.0167 C.2       0 UNK         0.4855 
      3 O          27.2737   -3.4443    1.8696 O.2       0 UNK        -0.5197 
      4 N          28.4574   -3.7182   -0.0354 N.am      1 UNK        -0.4892 
      5 CA         28.6970   -2.2971   -0.3262 C.3       1 UNK         0.0835 
      6 C6         29.8119   -2.1030   -1.3823 C.3       12 UNK        -0.0855 
      7 S7         31.4376   -2.7079   -0.8022 S.3       12 UNK        -0.2931 
      8 C8         31.5475   -4.3894   -1.5059 C.3       12 UNK         0.0378 
      9 C9         31.5245   -4.3780   -3.0265 C.ar      12 UNK        -0.0802 
     10 C10        32.6353   -3.9198   -3.7390 C.ar      12 UNK        -0.0944 
     11 C11        32.6051   -3.8559   -5.1346 C.ar      12 UNK        -0.0787 
     12 C12        31.4565   -4.2640   -5.8188 C.ar      12 UNK        -0.0862 
     13 C13        30.3352   -4.7147   -5.1157 C.ar      12 UNK        -0.0733 
     14 C14        30.3850   -4.7953   -3.7209 C.ar      12 UNK        -0.0832 
     15 C15        29.0498   -5.0501   -5.8617 C.3       12 UNK         0.0240 
     16 S16        27.6411   -4.0256   -5.3110 S.3       12 UNK        -0.2522 
     17 C17        28.2814   -2.3258   -5.5109 C.3       12 UNK        -0.0967 
     18 CA         27.5726   -1.5392   -6.6369 C.3       5 UNK         0.0660 
     19 N          26.1214   -1.4566   -6.4521 N.am      5 UNK        -0.4015 
     20 C          25.2558   -1.0557   -7.3940 C.2       4 UNK         0.4946 
     21 O          25.5859   -0.7401   -8.5361 O.2       4 UNK        -0.5353 
     22 CA         23.7781   -0.9402   -6.9837 C.3       4 UNK         0.0277 
     23 CB         23.0891   -2.3122   -7.0533 C.3       4 UNK        -0.1981 
     24 N          23.6063   -0.3681   -5.6468 N.am      4 UNK        -0.4209 
     25 C          23.9696    0.8758   -5.2997 C.2       3 UNK         0.4942 
     26 O          24.4066    1.7059   -6.0942 O.2       3 UNK        -0.5208 
     27 CA         23.8820    1.2401   -3.8069 C.3       3 UNK         0.0250 
     28 CB         22.5207    1.8779   -3.4881 C.3       3 UNK        -0.1990 
     29 N          24.1154    0.1038   -2.9081 N.am      3 UNK        -0.4232 
     30 C          25.2370   -0.6300   -2.8709 C.2       2 UNK         0.4993 
     31 O          26.2107   -0.4336   -3.6034 O.2       2 UNK        -0.5286 
     32 CA         25.2114   -1.8378   -1.9198 C.3       2 UNK         0.0209 
     33 CB         24.4974   -3.0222   -2.5942 C.3       2 UNK        -0.1931 
     34 N          26.5399   -2.2816   -1.4953 N.am      2 UNK        -0.4546 
     35 C          27.4013   -1.5730   -0.7509 C.2       1 UNK         0.5154 
     36 O          27.1906   -0.4234   -0.3602 O.2       1 UNK        -0.5181 
     37 C          28.1870   -0.1353   -6.7699 C.2       5 UNK         0.5014 
     38 O          29.0184    0.0810   -7.6521 O.2       5 UNK        -0.5248 
     39 N          27.7411    0.8023   -5.9216 N.am      6 UNK        -0.4434 
     40 CA         28.1421    2.2111   -5.9691 C.3       6 UNK         0.0363 
     41 CB         27.5742    2.9485   -4.7473 C.3       6 UNK        -0.1936 
     42 C          27.7322    2.9200   -7.2743 C.2       6 UNK         0.5081 
     43 O          28.4406    3.8249   -7.7128 O.2       6 UNK        -0.5248 
     44 N          26.6140    2.4973   -7.8771 N.am      7 UNK        -0.4718 
     45 CA         26.1415    2.9757   -9.1733 C.3       7 UNK         0.0273 
     46 CB         24.6221    2.7600   -9.2802 C.3       7 UNK        -0.1935 
     47 C          26.8783    2.3065  -10.3450 C.2       7 UNK         0.5018 
     48 O          27.4393    3.0135  -11.1829 O.2       7 UNK        -0.5186 
     49 N          26.8281    0.9680  -10.4131 N.am      8 UNK        -0.4240 
     50 CA         27.2717    0.1962  -11.5767 C.3       8 UNK         0.0235 
     51 CB         26.5318   -1.1515  -11.6185 C.3       8 UNK        -0.2000 
     52 C          28.7891   -0.0241  -11.6274 C.2       8 UNK         0.4941 
     53 O          29.3894    0.1807  -12.6834 O.2       8 UNK        -0.5273 
     54 N          29.3779   -0.4647  -10.5081 N.am      9 UNK        -0.4262 
     55 CA         30.8022   -0.8010  -10.4109 C.3       9 UNK         0.0264 
     56 CB         30.9775   -1.9948   -9.4560 C.3       9 UNK        -0.1955 
     57 C          31.6611    0.3934   -9.9626 C.2       9 UNK         0.5031 
     58 O          32.8707    0.3755  -10.1935 O.2       9 UNK        -0.5390 
     59 N          31.0271    1.3956   -9.3343 N.am      10 UNK        -0.4204 
     60 CA         31.6164    2.6102   -8.7555 C.3       10 UNK         0.0237 
     61 CB         32.3156    3.4705   -9.8306 C.3       10 UNK        -0.1985 
     62 C          32.5058    2.3297   -7.5284 C.2       10 UNK         0.4970 
     63 O          33.4053    3.1187   -7.2324 O.2       10 UNK        -0.4914 
     64 N          32.2382    1.2177   -6.8341 N.am      11 UNK        -0.4285 
     65 CA         32.9489    0.7946   -5.6213 C.3       11 UNK         0.1007 
     66 C          32.5343    1.6281   -4.3794 C.2       11 UNK         0.5703 
     67 N          33.4412    1.8175   -3.4306 N.am      11 UNK        -0.7361 
     68 O          31.3953    2.0725   -4.2506 O.2       11 UNK        -0.4986 
     69 C69        32.7626   -0.7199   -5.3611 C.3       12 UNK        -0.0947 
     70 S70        33.3964   -1.7360   -6.7386 S.3       12 UNK        -0.2240 
     71 C71        33.7976   -3.3010   -5.8992 C.3       12 UNK         0.0194 
     72 H72        28.0438   -6.0364    2.0766 H         1 UNK         0.0906 
     73 H73        26.5581   -5.9593    1.1260 H         1 UNK         0.0906 
     74 H74        28.1079   -6.2189    0.3230 H         1 UNK         0.0906 
     75 H75        28.8552   -4.3728   -0.6908 H         1 UNK         0.3140 
     76 H76        29.0278   -1.8226    0.6009 H         1 UNK         0.1085 
     77 H77        29.9331   -1.0413   -1.6075 H         1 UNK         0.0836 
     78 H78        29.5416   -2.5722   -2.3285 H         1 UNK         0.0836 
     79 H79        32.4774   -4.8487   -1.1671 H         1 UNK         0.0731 
     80 H80        30.7453   -5.0106   -1.1071 H         1 UNK         0.0731 
     81 H81        33.5123   -3.5856   -3.2013 H         1 UNK         0.1312 
     82 H82        31.4257   -4.1880   -6.8973 H         1 UNK         0.1406 
     83 H83        29.5146   -5.1386   -3.1790 H         1 UNK         0.1631 
     84 H84        28.8079   -6.1020   -5.7050 H         1 UNK         0.0717 
     85 H85        29.1772   -4.9178   -6.9373 H         1 UNK         0.0717 
     86 H86        28.1740   -1.8190   -4.5507 H         1 UNK         0.0934 
     87 H87        29.3540   -2.3508   -5.7055 H         1 UNK         0.0934 
     88 H88        27.7558   -2.0636   -7.5775 H         1 UNK         0.0739 
     89 H89        25.7865   -1.6382   -5.5167 H         1 UNK         0.3093 
     90 H90        23.2885   -0.2740   -7.6975 H         1 UNK         0.0818 
     91 H91        22.0219   -2.2314   -6.8464 H         1 UNK         0.0819 
     92 H92        23.1917   -2.7483   -8.0481 H         1 UNK         0.0819 
     93 H93        23.5174   -3.0199   -6.3421 H         1 UNK         0.0819 
     94 H94        23.2363   -0.9753   -4.9310 H         1 UNK         0.3041 
     95 H95        24.6597    1.9787   -3.6049 H         1 UNK         0.0784 
     96 H96        22.3353    2.7408   -4.1297 H         1 UNK         0.0793 
     97 H97        21.6988    1.1770   -3.6394 H         1 UNK         0.0793 
     98 H98        22.4782    2.2298   -2.4571 H         1 UNK         0.0793 
     99 H99        23.3579   -0.1341   -2.2834 H         1 UNK         0.3024 
    100 H100       24.6594   -1.5536   -1.0209 H         1 UNK         0.1171 
    101 H101       23.4807   -2.7588   -2.8888 H         1 UNK         0.0786 
    102 H102       24.4216   -3.8755   -1.9198 H         1 UNK         0.0786 
    103 H103       25.0227   -3.3519   -3.4919 H         1 UNK         0.0786 
    104 H104       26.8107   -3.2138   -1.7693 H         1 UNK         0.2977 
    105 H105       27.0859    0.5283   -5.1953 H         1 UNK         0.3127 
    106 H106       29.2318    2.2426   -5.9099 H         1 UNK         0.0770 
    107 H107       26.4856    2.9896   -4.7728 H         1 UNK         0.0814 
    108 H108       27.9375    3.9763   -4.7129 H         1 UNK         0.0814 
    109 H109       27.8742    2.4666   -3.8164 H         1 UNK         0.0814 
    110 H110       26.0338    1.8168   -7.3991 H         1 UNK         0.2983 
    111 H111       26.3270    4.0505   -9.2372 H         1 UNK         0.0947 
    112 H112       24.2445    3.1048  -10.2436 H         1 UNK         0.0806 
    113 H113       24.0911    3.3145   -8.5062 H         1 UNK         0.0806 
    114 H114       24.3499    1.7090   -9.1783 H         1 UNK         0.0806 
    115 H115       26.3562    0.4461   -9.6749 H         1 UNK         0.3000 
    116 H116       26.9918    0.7480  -12.4772 H         1 UNK         0.0850 
    117 H117       26.8057   -1.7198  -12.5084 H         1 UNK         0.0810 
    118 H118       25.4513   -1.0095  -11.6439 H         1 UNK         0.0810 
    119 H119       26.7655   -1.7712  -10.7519 H         1 UNK         0.0810 
    120 H120       28.8341   -0.5455   -9.6567 H         1 UNK         0.3040 
    121 H121       31.1679   -1.1116  -11.3922 H         1 UNK         0.0766 
    122 H122       32.0180   -2.3208   -9.4348 H         1 UNK         0.0812 
    123 H123       30.3792   -2.8490   -9.7728 H         1 UNK         0.0812 
    124 H124       30.6961   -1.7492   -8.4322 H         1 UNK         0.0812 
    125 H125       30.0467    1.2462   -9.1242 H         1 UNK         0.3205 
    126 H126       30.7814    3.1957   -8.3771 H         1 UNK         0.0754 
    127 H127       32.5958    4.4450   -9.4290 H         1 UNK         0.0769 
    128 H128       31.6593    3.6497  -10.6823 H         1 UNK         0.0769 
    129 H129       33.2269    2.9998  -10.2003 H         1 UNK         0.0769 
    130 H130       31.4644    0.6374   -7.1239 H         1 UNK         0.2981 
    131 H131       34.0135    0.9708   -5.7898 H         1 UNK         0.0541 
    132 H132       33.1862    2.3449   -2.6105 H         1 UNK         0.3459 
    133 H133       34.3756    1.4496   -3.5190 H         1 UNK         0.3459 
    134 H134       31.7092   -0.9618   -5.2057 H         1 UNK         0.0612 
    135 H135       33.2858   -1.0128   -4.4489 H         1 UNK         0.0612 
    136 H136       34.1212   -4.0301   -6.6431 H         1 UNK         0.0624 
    137 H137       34.6473   -3.1381   -5.2345 H         1 UNK         0.0624 
@<TRIPOS>BOND
     1    1    2 1    
     2    1   72 1    
     3    1   73 1    
     4    1   74 1    
     5    2    3 2    
     6    2    4 am   BACKBONE|DICT|INTERRES
     7    4    5 1    
     8    4   75 1    
     9    5    6 1    
    10    5   35 1    
    11    5   76 1    
    12    6    7 1    
    13    6   77 1    
    14    6   78 1    
    15    7    8 1    
    16    8    9 1    
    17    8   79 1    
    18    8   80 1    
    19    9   10 ar   
    20    9   14 ar   
    21   10   11 ar   
    22   10   81 1    
    23   11   12 ar   
    24   11   71 1    
    25   12   13 ar   
    26   12   82 1    
    27   13   14 ar   
    28   13   15 1    
    29   14   83 1    
    30   15   16 1    
    31   15   84 1    
    32   15   85 1    
    33   16   17 1    
    34   17   18 1    
    35   17   86 1    
    36   17   87 1    
    37   18   19 1    
    38   18   37 1    
    39   18   88 1    
    40   19   20 am   BACKBONE|DICT|INTERRES
    41   19   89 1    
    42   20   21 2    
    43   20   22 1    
    44   22   23 1    
    45   22   24 1    
    46   22   90 1    
    47   23   91 1    
    48   23   92 1    
    49   23   93 1    
    50   24   25 am   BACKBONE|DICT|INTERRES
    51   24   94 1    
    52   25   26 2    
    53   25   27 1    
    54   27   28 1    
    55   27   29 1    
    56   27   95 1    
    57   28   96 1    
    58   28   97 1    
    59   28   98 1    
    60   29   30 am   BACKBONE|DICT|INTERRES
    61   29   99 1    
    62   30   31 2    
    63   30   32 1    
    64   32   33 1    
    65   32   34 1    
    66   32  100 1    
    67   33  101 1    
    68   33  102 1    
    69   33  103 1    
    70   34   35 am   BACKBONE|DICT|INTERRES
    71   34  104 1    
    72   35   36 2    
    73   37   38 2    
    74   37   39 am   BACKBONE|DICT|INTERRES
    75   39   40 1    
    76   39  105 1    
    77   40   41 1    
    78   40   42 1    
    79   40  106 1    
    80   41  107 1    
    81   41  108 1    
    82   41  109 1    
    83   42   43 2    
    84   42   44 am   BACKBONE|DICT|INTERRES
    85   44   45 1    
    86   44  110 1    
    87   45   46 1    
    88   45   47 1    
    89   45  111 1    
    90   46  112 1    
    91   46  113 1    
    92   46  114 1    
    93   47   48 2    
    94   47   49 am   BACKBONE|DICT|INTERRES
    95   49   50 1    
    96   49  115 1    
    97   50   51 1    
    98   50   52 1    
    99   50  116 1    
   100   51  117 1    
   101   51  118 1    
   102   51  119 1    
   103   52   53 2    
   104   52   54 am   BACKBONE|DICT|INTERRES
   105   54   55 1    
   106   54  120 1    
   107   55   56 1    
   108   55   57 1    
   109   55  121 1    
   110   56  122 1    
   111   56  123 1    
   112   56  124 1    
   113   57   58 2    
   114   57   59 am   BACKBONE|DICT|INTERRES
   115   59   60 1    
   116   59  125 1    
   117   60   61 1    
   118   60   62 1    
   119   60  126 1    
   120   61  127 1    
   121   61  128 1    
   122   61  129 1    
   123   62   63 2    
   124   62   64 am   BACKBONE|DICT|INTERRES
   125   64   65 1    
   126   64  130 1    
   127   65   66 1    
   128   65   69 1    
   129   65  131 1    
   130   66   67 am   BACKBONE|DICT|INTERRES
   131   66   68 2    
   132   67  132 1    
   133   67  133 1    
   134   69   70 1    
   135   69  134 1    
   136   69  135 1    
   137   70   71 1    
   138   71  136 1    
   139   71  137 1    
@<TRIPOS>SUBSTRUCTURE
     1 UNK         1 GROUP             0       ****    0 ROOT    
