@<TRIPOS>MOLECULE
3R137
137   139    1
SMALL
USER_CHARGES


@<TRIPOS>ATOM
      1 CA         25.4448   -6.1376   -5.7034 C.3       0 UNK        -0.2020 
      2 C          25.3977   -5.5695   -4.2936 C.2       0 UNK         0.4855 
      3 O          24.3417   -5.1186   -3.8484 O.2       0 UNK        -0.5197 
      4 N          26.5372   -5.5713   -3.5912 N.am      1 UNK        -0.4892 
      5 CA         26.7159   -5.0142   -2.2461 C.3       1 UNK         0.0835 
      6 C6         28.1089   -5.3450   -1.6463 C.3       12 UNK        -0.0855 
      7 S7         29.5100   -5.1886   -2.8144 S.3       12 UNK        -0.2931 
      8 C8         30.8290   -4.5404   -1.7429 C.3       12 UNK         0.0378 
      9 C9         31.0401   -3.0476   -1.9450 C.ar      12 UNK        -0.0802 
     10 C10        31.9191   -2.6029   -2.9361 C.ar      12 UNK        -0.0944 
     11 C11        32.1783   -1.2397   -3.0960 C.ar      12 UNK        -0.0787 
     12 C12        31.5478   -0.3159   -2.2586 C.ar      12 UNK        -0.0862 
     13 C13        30.6474   -0.7446   -1.2773 C.ar      12 UNK        -0.0733 
     14 C14        30.3967   -2.1140   -1.1260 C.ar      12 UNK        -0.0832 
     15 C15        29.9687    0.2656   -0.3577 C.3       12 UNK         0.0240 
     16 S16        29.0885    1.5856   -1.2596 S.3       12 UNK        -0.2522 
     17 C17        27.8820    0.6303   -2.2350 C.3       12 UNK        -0.0967 
     18 CA         28.1209    0.7708   -3.7620 C.3       5 UNK         0.0660 
     19 N          27.7436   -0.4488   -4.4794 N.am      5 UNK        -0.4015 
     20 C          27.8743   -0.6571   -5.7974 C.2       4 UNK         0.4946 
     21 O          28.3971    0.1372   -6.5792 O.2       4 UNK        -0.5353 
     22 CA         27.2434   -1.9463   -6.3457 C.3       4 UNK         0.0277 
     23 CB         28.1695   -3.1548   -6.1305 C.3       4 UNK        -0.1981 
     24 N          25.9296   -2.1953   -5.7456 N.am      4 UNK        -0.4209 
     25 C          24.8418   -1.4473   -5.9883 C.2       3 UNK         0.4942 
     26 O          24.8160   -0.5238   -6.7999 O.2       3 UNK        -0.5208 
     27 CA         23.5848   -1.7402   -5.1539 C.3       3 UNK         0.0250 
     28 CB         22.7366   -2.8419   -5.8076 C.3       3 UNK        -0.1990 
     29 N          23.9056   -2.0985   -3.7697 N.am      3 UNK        -0.4232 
     30 C          24.3868   -1.2235   -2.8720 C.2       2 UNK         0.4993 
     31 O          24.5676   -0.0313   -3.1151 O.2       2 UNK        -0.5286 
     32 CA         24.7871   -1.7659   -1.4883 C.3       2 UNK         0.0209 
     33 CB         23.5942   -1.7060   -0.5216 C.3       2 UNK        -0.1931 
     34 N          25.3218   -3.1298   -1.5242 N.am      2 UNK        -0.4546 
     35 C          26.4012   -3.5055   -2.2241 C.2       1 UNK         0.5154 
     36 O          27.0868   -2.7224   -2.8835 O.2       1 UNK        -0.5181 
     37 C          27.4155    2.0216   -4.3316 C.2       5 UNK         0.5014 
     38 O          28.0781    3.0246   -4.6007 O.2       5 UNK        -0.5248 
     39 N          26.0907    1.9268   -4.5274 N.am      6 UNK        -0.4434 
     40 CA         25.2527    2.9711   -5.1202 C.3       6 UNK         0.0363 
     41 CB         23.7704    2.6037   -4.9475 C.3       6 UNK        -0.1936 
     42 C          25.5720    3.2419   -6.6000 C.2       6 UNK         0.5081 
     43 O          25.5831    4.4049   -7.0052 O.2       6 UNK        -0.5248 
     44 N          25.8253    2.1796   -7.3795 N.am      7 UNK        -0.4718 
     45 CA         26.2201    2.2664   -8.7892 C.3       7 UNK         0.0273 
     46 CB         26.1702    0.8713   -9.4328 C.3       7 UNK        -0.1935 
     47 C          27.6092    2.8935   -8.9861 C.2       7 UNK         0.5018 
     48 O          27.8112    3.6065   -9.9702 O.2       7 UNK        -0.5186 
     49 N          28.5382    2.6023   -8.0633 N.am      8 UNK        -0.4240 
     50 CA         29.9259    3.0742   -7.9581 C.3       8 UNK         0.0235 
     51 CB         29.9983    4.6071   -7.8261 C.3       8 UNK        -0.2000 
     52 C          30.8577    2.5616   -9.0688 C.2       8 UNK         0.4941 
     53 O          31.9626    2.1170   -8.7636 O.2       8 UNK        -0.5273 
     54 N          30.3981    2.5768  -10.3272 N.am      9 UNK        -0.4262 
     55 CA         31.0977    2.0323  -11.4974 C.3       9 UNK         0.0264 
     56 CB         30.2872    2.3450  -12.7649 C.3       9 UNK        -0.1955 
     57 C          31.3747    0.5212  -11.3916 C.2       9 UNK         0.5031 
     58 O          32.3810    0.0478  -11.9214 O.2       9 UNK        -0.5390 
     59 N          30.5076   -0.1950  -10.6613 N.am      10 UNK        -0.4204 
     60 CA         30.6473   -1.6087  -10.3053 C.3       10 UNK         0.0237 
     61 CB         29.3712   -2.0627   -9.5793 C.3       10 UNK        -0.1985 
     62 C          31.8907   -1.9199   -9.4484 C.2       10 UNK         0.4970 
     63 O          32.3533   -3.0611   -9.4687 O.2       10 UNK        -0.4914 
     64 N          32.4152   -0.9171   -8.7305 N.am      11 UNK        -0.4285 
     65 CA         33.6666   -1.0035   -7.9644 C.3       11 UNK         0.1007 
     66 C          34.9484   -0.8872   -8.8421 C.2       11 UNK         0.5703 
     67 N          34.8595   -0.5921  -10.1355 N.am      11 UNK        -0.7361 
     68 O          36.0522   -1.0842   -8.3396 O.2       11 UNK        -0.4986 
     69 C69        33.6927    0.0138   -6.7924 C.3       12 UNK        -0.0947 
     70 S70        32.2862   -0.1992   -5.6482 S.3       12 UNK        -0.2240 
     71 C71        33.1559   -0.7701   -4.1596 C.3       12 UNK         0.0194 
     72 H72        26.4175   -6.5710   -5.9355 H         1 UNK         0.0906 
     73 H73        24.6913   -6.9162   -5.8188 H         1 UNK         0.0906 
     74 H74        25.2400   -5.3539   -6.4322 H         1 UNK         0.0906 
     75 H75        27.3888   -5.9171   -4.0125 H         1 UNK         0.3140 
     76 H76        25.9773   -5.5074   -1.6101 H         1 UNK         0.1085 
     77 H77        28.2927   -4.7429   -0.7543 H         1 UNK         0.0836 
     78 H78        28.1060   -6.3790   -1.2976 H         1 UNK         0.0836 
     79 H79        31.7527   -5.0720   -1.9768 H         1 UNK         0.0731 
     80 H80        30.6212   -4.7620   -0.6952 H         1 UNK         0.0731 
     81 H81        32.4123   -3.3220   -3.5760 H         1 UNK         0.1312 
     82 H82        31.7512    0.7397   -2.3769 H         1 UNK         0.1406 
     83 H83        29.7128   -2.4570   -0.3618 H         1 UNK         0.1631 
     84 H84        30.7259    0.7227    0.2807 H         1 UNK         0.0717 
     85 H85        29.2624   -0.2296    0.3105 H         1 UNK         0.0717 
     86 H86        27.9576   -0.4152   -1.9351 H         1 UNK         0.0934 
     87 H87        26.8740    0.9358   -1.9481 H         1 UNK         0.0934 
     88 H88        29.1920    0.8896   -3.9414 H         1 UNK         0.0739 
     89 H89        27.3679   -1.2069   -3.9137 H         1 UNK         0.3093 
     90 H90        27.1014   -1.8172   -7.4205 H         1 UNK         0.0818 
     91 H91        28.3420   -3.3571   -5.0736 H         1 UNK         0.0819 
     92 H92        27.7579   -4.0567   -6.5829 H         1 UNK         0.0819 
     93 H93        29.1462   -2.9814   -6.5842 H         1 UNK         0.0819 
     94 H94        25.8866   -2.8868   -5.0111 H         1 UNK         0.3041 
     95 H95        22.9846   -0.8278   -5.1324 H         1 UNK         0.0784 
     96 H96        22.4293   -2.5482   -6.8123 H         1 UNK         0.0793 
     97 H97        23.2833   -3.7800   -5.8988 H         1 UNK         0.0793 
     98 H98        21.8292   -3.0367   -5.2357 H         1 UNK         0.0793 
     99 H99        23.8308   -3.0788   -3.5181 H         1 UNK         0.3024 
    100 H100       25.5732   -1.1147   -1.1008 H         1 UNK         0.1171 
    101 H101       23.1915   -0.6936   -0.4621 H         1 UNK         0.0786 
    102 H102       23.8858   -1.9957    0.4881 H         1 UNK         0.0786 
    103 H103       22.7822   -2.3614   -0.8393 H         1 UNK         0.0786 
    104 H104       24.7876   -3.8350   -1.0362 H         1 UNK         0.2977 
    105 H105       25.6068    1.0916   -4.2035 H         1 UNK         0.3127 
    106 H106       25.4391    3.8951   -4.5687 H         1 UNK         0.0770 
    107 H107       23.5258    1.6688   -5.4528 H         1 UNK         0.0814 
    108 H108       23.1246    3.3787   -5.3623 H         1 UNK         0.0814 
    109 H109       23.5091    2.4929   -3.8949 H         1 UNK         0.0814 
    110 H110       25.7204    1.2465   -6.9913 H         1 UNK         0.2983 
    111 H111       25.4970    2.9050   -9.3013 H         1 UNK         0.0947 
    112 H112       26.4506    0.9147  -10.4862 H         1 UNK         0.0806 
    113 H113       25.1665    0.4488   -9.3831 H         1 UNK         0.0806 
    114 H114       26.8498    0.1748   -8.9410 H         1 UNK         0.0806 
    115 H115       28.2818    1.9124   -7.3598 H         1 UNK         0.3000 
    116 H116       30.2978    2.6492   -7.0237 H         1 UNK         0.0850 
    117 H117       31.0233    4.9324   -7.6437 H         1 UNK         0.0810 
    118 H118       29.3925    4.9579   -6.9903 H         1 UNK         0.0810 
    119 H119       29.6529    5.1142   -8.7274 H         1 UNK         0.0810 
    120 H120       29.4753    2.9812  -10.4750 H         1 UNK         0.3040 
    121 H121       32.0630    2.5376  -11.5700 H         1 UNK         0.0766 
    122 H122       30.1582    3.4194  -12.8979 H         1 UNK         0.0812 
    123 H123       29.2964    1.8898  -12.7341 H         1 UNK         0.0812 
    124 H124       30.7931    1.9679  -13.6549 H         1 UNK         0.0812 
    125 H125       29.7192    0.2935  -10.2639 H         1 UNK         0.3205 
    126 H126       30.7403   -2.1768  -11.2331 H         1 UNK         0.0754 
    127 H127       29.4264   -3.1183   -9.3094 H         1 UNK         0.0769 
    128 H128       28.4875   -1.9349  -10.2049 H         1 UNK         0.0769 
    129 H129       29.2180   -1.4974   -8.6598 H         1 UNK         0.0769 
    130 H130       32.0032    0.0072   -8.7773 H         1 UNK         0.2981 
    131 H131       33.7112   -1.9990   -7.5185 H         1 UNK         0.0541 
    132 H132       35.7038   -0.5289  -10.6814 H         1 UNK         0.3459 
    133 H133       33.9631   -0.4303  -10.5775 H         1 UNK         0.3459 
    134 H134       34.6241   -0.0760   -6.2307 H         1 UNK         0.0612 
    135 H135       33.6759    1.0365   -7.1696 H         1 UNK         0.0612 
    136 H136       33.7725    0.0403   -3.7679 H         1 UNK         0.0624 
    137 H137       33.8378   -1.5790   -4.4273 H         1 UNK         0.0624 
@<TRIPOS>BOND
     1    1    2 1    
     2    1   72 1    
     3    1   73 1    
     4    1   74 1    
     5    2    3 2    
     6    2    4 am   BACKBONE|DICT|INTERRES
     7    4    5 1    
     8    4   75 1    
     9    5    6 1    
    10    5   35 1    
    11    5   76 1    
    12    6    7 1    
    13    6   77 1    
    14    6   78 1    
    15    7    8 1    
    16    8    9 1    
    17    8   79 1    
    18    8   80 1    
    19    9   10 ar   
    20    9   14 ar   
    21   10   11 ar   
    22   10   81 1    
    23   11   12 ar   
    24   11   71 1    
    25   12   13 ar   
    26   12   82 1    
    27   13   14 ar   
    28   13   15 1    
    29   14   83 1    
    30   15   16 1    
    31   15   84 1    
    32   15   85 1    
    33   16   17 1    
    34   17   18 1    
    35   17   86 1    
    36   17   87 1    
    37   18   19 1    
    38   18   37 1    
    39   18   88 1    
    40   19   20 am   BACKBONE|DICT|INTERRES
    41   19   89 1    
    42   20   21 2    
    43   20   22 1    
    44   22   23 1    
    45   22   24 1    
    46   22   90 1    
    47   23   91 1    
    48   23   92 1    
    49   23   93 1    
    50   24   25 am   BACKBONE|DICT|INTERRES
    51   24   94 1    
    52   25   26 2    
    53   25   27 1    
    54   27   28 1    
    55   27   29 1    
    56   27   95 1    
    57   28   96 1    
    58   28   97 1    
    59   28   98 1    
    60   29   30 am   BACKBONE|DICT|INTERRES
    61   29   99 1    
    62   30   31 2    
    63   30   32 1    
    64   32   33 1    
    65   32   34 1    
    66   32  100 1    
    67   33  101 1    
    68   33  102 1    
    69   33  103 1    
    70   34   35 am   BACKBONE|DICT|INTERRES
    71   34  104 1    
    72   35   36 2    
    73   37   38 2    
    74   37   39 am   BACKBONE|DICT|INTERRES
    75   39   40 1    
    76   39  105 1    
    77   40   41 1    
    78   40   42 1    
    79   40  106 1    
    80   41  107 1    
    81   41  108 1    
    82   41  109 1    
    83   42   43 2    
    84   42   44 am   BACKBONE|DICT|INTERRES
    85   44   45 1    
    86   44  110 1    
    87   45   46 1    
    88   45   47 1    
    89   45  111 1    
    90   46  112 1    
    91   46  113 1    
    92   46  114 1    
    93   47   48 2    
    94   47   49 am   BACKBONE|DICT|INTERRES
    95   49   50 1    
    96   49  115 1    
    97   50   51 1    
    98   50   52 1    
    99   50  116 1    
   100   51  117 1    
   101   51  118 1    
   102   51  119 1    
   103   52   53 2    
   104   52   54 am   BACKBONE|DICT|INTERRES
   105   54   55 1    
   106   54  120 1    
   107   55   56 1    
   108   55   57 1    
   109   55  121 1    
   110   56  122 1    
   111   56  123 1    
   112   56  124 1    
   113   57   58 2    
   114   57   59 am   BACKBONE|DICT|INTERRES
   115   59   60 1    
   116   59  125 1    
   117   60   61 1    
   118   60   62 1    
   119   60  126 1    
   120   61  127 1    
   121   61  128 1    
   122   61  129 1    
   123   62   63 2    
   124   62   64 am   BACKBONE|DICT|INTERRES
   125   64   65 1    
   126   64  130 1    
   127   65   66 1    
   128   65   69 1    
   129   65  131 1    
   130   66   67 am   BACKBONE|DICT|INTERRES
   131   66   68 2    
   132   67  132 1    
   133   67  133 1    
   134   69   70 1    
   135   69  134 1    
   136   69  135 1    
   137   70   71 1    
   138   71  136 1    
   139   71  137 1    
@<TRIPOS>SUBSTRUCTURE
     1 UNK         1 GROUP             0       ****    0 ROOT    
