@<TRIPOS>MOLECULE
3R137
137   139    1
SMALL
USER_CHARGES


@<TRIPOS>ATOM
      1 CA         30.1422    1.4264   -1.8500 C.3       0 UNK        -0.2020 
      2 C          29.5236    0.0619   -2.1137 C.2       0 UNK         0.4855 
      3 O          29.1216   -0.2148   -3.2414 O.2       0 UNK        -0.5197 
      4 N          29.4496   -0.7924   -1.0849 N.am      1 UNK        -0.4892 
      5 CA         28.8075   -2.1080   -1.1491 C.3       1 UNK         0.0835 
      6 C6         29.2723   -3.0078    0.0244 C.3       12 UNK        -0.0855 
      7 S7         28.8593   -4.7710   -0.2160 S.3       12 UNK        -0.2931 
      8 C8         30.4253   -5.4442   -0.8603 C.3       12 UNK         0.0378 
      9 C9         30.7764   -4.8531   -2.2177 C.ar      12 UNK        -0.0802 
     10 C10        31.8469   -3.9616   -2.3455 C.ar      12 UNK        -0.0944 
     11 C11        32.1579   -3.4051   -3.5892 C.ar      12 UNK        -0.0787 
     12 C12        31.3891   -3.7423   -4.7067 C.ar      12 UNK        -0.0862 
     13 C13        30.3062   -4.6179   -4.5883 C.ar      12 UNK        -0.0733 
     14 C14        30.0161   -5.1849   -3.3440 C.ar      12 UNK        -0.0832 
     15 C15        29.4401   -4.9361   -5.8002 C.3       12 UNK         0.0240 
     16 S16        27.7639   -4.2353   -5.6450 S.3       12 UNK        -0.2522 
     17 C17        28.0989   -2.4439   -5.5620 C.3       12 UNK        -0.0967 
     18 CA         27.4101   -1.6425   -6.6929 C.3       5 UNK         0.0660 
     19 N          25.9524   -1.8014   -6.6920 N.am      5 UNK        -0.4015 
     20 C          25.1232   -1.3437   -7.6410 C.2       4 UNK         0.4946 
     21 O          25.4963   -0.7581   -8.6573 O.2       4 UNK        -0.5353 
     22 CA         23.6173   -1.5423   -7.3984 C.3       4 UNK         0.0277 
     23 CB         23.1875   -2.9643   -7.7932 C.3       4 UNK        -0.1981 
     24 N          23.2265   -1.2748   -6.0117 N.am      4 UNK        -0.4209 
     25 C          23.2797   -0.0671   -5.4306 C.2       3 UNK         0.4942 
     26 O          23.6140    0.9616   -6.0164 O.2       3 UNK        -0.5208 
     27 CA         22.9587   -0.0044   -3.9261 C.3       3 UNK         0.0250 
     28 CB         21.4419    0.0987   -3.6996 C.3       3 UNK        -0.1990 
     29 N          23.5002   -1.1313   -3.1542 N.am      3 UNK        -0.4232 
     30 C          24.7965   -1.4704   -3.1147 C.2       2 UNK         0.4993 
     31 O          25.6678   -0.8859   -3.7609 O.2       2 UNK        -0.5286 
     32 CA         25.1649   -2.6998   -2.2657 C.3       2 UNK         0.0209 
     33 CB         24.7321   -3.9939   -2.9761 C.3       2 UNK        -0.1931 
     34 N          26.6055   -2.7694   -2.0091 N.am      2 UNK        -0.4546 
     35 C          27.2723   -1.9495   -1.1866 C.2       1 UNK         0.5154 
     36 O          26.7253   -1.1158   -0.4578 O.2       1 UNK        -0.5181 
     37 C          27.8032   -0.1570   -6.6069 C.2       5 UNK         0.5014 
     38 O          28.6587    0.2873   -7.3746 O.2       5 UNK        -0.5248 
     39 N          27.1447    0.5810   -5.7026 N.am      6 UNK        -0.4434 
     40 CA         27.3147    2.0187   -5.5065 C.3       6 UNK         0.0363 
     41 CB         26.5480    2.4603   -4.2502 C.3       6 UNK        -0.1936 
     42 C          26.8840    2.8368   -6.7341 C.2       6 UNK         0.5081 
     43 O          27.6155    3.7412   -7.1358 O.2       6 UNK        -0.5248 
     44 N          25.7328    2.4894   -7.3297 N.am      7 UNK        -0.4718 
     45 CA         25.2080    3.1091   -8.5516 C.3       7 UNK         0.0273 
     46 CB         23.7790    2.6100   -8.8170 C.3       7 UNK        -0.1935 
     47 C          26.1003    2.8702   -9.7809 C.2       7 UNK         0.5018 
     48 O          26.2974    3.7933  -10.5720 O.2       7 UNK        -0.5186 
     49 N          26.6422    1.6509   -9.9070 N.am      8 UNK        -0.4240 
     50 CA         27.6025    1.2754  -10.9484 C.3       8 UNK         0.0235 
     51 CB         27.6700   -0.2588  -11.0329 C.3       8 UNK        -0.2000 
     52 C          29.0137    1.8512  -10.7252 C.2       8 UNK         0.4941 
     53 O          29.8048    1.8563  -11.6692 O.2       8 UNK        -0.5273 
     54 N          29.3127    2.2828   -9.4891 N.am      9 UNK        -0.4262 
     55 CA         30.6293    2.6723   -8.9683 C.3       9 UNK         0.0264 
     56 CB         31.1403    3.9620   -9.6439 C.3       9 UNK        -0.1955 
     57 C          31.6355    1.5061   -9.0384 C.2       9 UNK         0.5031 
     58 O          32.7964    1.7033   -9.4055 O.2       9 UNK        -0.5390 
     59 N          31.1580    0.3012   -8.6923 N.am      10 UNK        -0.4204 
     60 CA         31.8614   -0.9764   -8.8447 C.3       10 UNK         0.0237 
     61 CB         30.8999   -2.1232   -8.4944 C.3       10 UNK        -0.1985 
     62 C          33.1622   -1.0945   -8.0326 C.2       10 UNK         0.4970 
     63 O          34.0453   -1.8572   -8.4269 O.2       10 UNK        -0.4914 
     64 N          33.2617   -0.3424   -6.9305 N.am      11 UNK        -0.4285 
     65 CA         34.4628   -0.2530   -6.0873 C.3       11 UNK         0.1007 
     66 C          35.5863    0.6520   -6.6745 C.2       11 UNK         0.5703 
     67 N          35.3643    1.3807   -7.7640 N.am      11 UNK        -0.7361 
     68 O          36.6888    0.6862   -6.1330 O.2       11 UNK        -0.4986 
     69 C69        34.1308    0.1400   -4.6193 C.3       12 UNK        -0.0947 
     70 S70        32.6911   -0.7300   -3.9121 S.3       12 UNK        -0.2240 
     71 C71        33.3135   -2.4289   -3.7383 C.3       12 UNK         0.0194 
     72 H72        29.4176    2.2121   -2.0624 H         1 UNK         0.0906 
     73 H73        31.0058    1.5759   -2.4976 H         1 UNK         0.0906 
     74 H74        30.4700    1.5347   -0.8164 H         1 UNK         0.0906 
     75 H75        29.7611   -0.4982   -0.1706 H         1 UNK         0.3140 
     76 H76        29.1255   -2.5706   -2.0864 H         1 UNK         0.1085 
     77 H77        28.8364   -2.6718    0.9674 H         1 UNK         0.0836 
     78 H78        30.3526   -2.9239    0.1540 H         1 UNK         0.0836 
     79 H79        31.2223   -5.2669   -0.1363 H         1 UNK         0.0731 
     80 H80        30.3332   -6.5272   -0.9534 H         1 UNK         0.0731 
     81 H81        32.4332   -3.6941   -1.4770 H         1 UNK         0.1312 
     82 H82        31.6261   -3.3006   -5.6646 H         1 UNK         0.1406 
     83 H83        29.1785   -5.8628   -3.2460 H         1 UNK         0.1631 
     84 H84        29.3617   -6.0184   -5.9113 H         1 UNK         0.0717 
     85 H85        29.8984   -4.5660   -6.7185 H         1 UNK         0.0717 
     86 H86        27.7743   -2.0913   -4.5833 H         1 UNK         0.0934 
     87 H87        29.1746   -2.2690   -5.5823 H         1 UNK         0.0934 
     88 H88        27.7770   -2.0202   -7.6495 H         1 UNK         0.0739 
     89 H89        25.5588   -2.2276   -5.8673 H         1 UNK         0.3093 
     90 H90        23.0847   -0.8357   -8.0387 H         1 UNK         0.0818 
     91 H91        23.4548   -3.1772   -8.8294 H         1 UNK         0.0819 
     92 H92        23.6658   -3.7224   -7.1715 H         1 UNK         0.0819 
     93 H93        22.1081   -3.0908   -7.7073 H         1 UNK         0.0819 
     94 H94        22.9318   -2.0631   -5.4544 H         1 UNK         0.3041 
     95 H95        23.4220    0.9044   -3.5363 H         1 UNK         0.0784 
     96 H96        21.0221    0.9407   -4.2521 H         1 UNK         0.0793 
     97 H97        20.9199   -0.8004   -4.0296 H         1 UNK         0.0793 
     98 H98        21.2073    0.2567   -2.6468 H         1 UNK         0.0793 
     99 H99        22.8382   -1.6641   -2.6080 H         1 UNK         0.3024 
    100 H100       24.6464   -2.6245   -1.3071 H         1 UNK         0.1171 
    101 H101       23.6529   -4.0195   -3.1321 H         1 UNK         0.0786 
    102 H102       25.2050   -4.0976   -3.9533 H         1 UNK         0.0786 
    103 H103       24.9898   -4.8740   -2.3864 H         1 UNK         0.0786 
    104 H104       27.1303   -3.4230   -2.5716 H         1 UNK         0.2977 
    105 H105       26.5133    0.1031   -5.0604 H         1 UNK         0.3127 
    106 H106       28.3782    2.2012   -5.3377 H         1 UNK         0.0770 
    107 H107       25.4761    2.2871   -4.3500 H         1 UNK         0.0814 
    108 H108       26.6931    3.5238   -4.0575 H         1 UNK         0.0814 
    109 H109       26.8921    1.9180   -3.3689 H         1 UNK         0.0814 
    110 H110       25.1567    1.7681   -6.9026 H         1 UNK         0.2983 
    111 H111       25.1658    4.1874   -8.3832 H         1 UNK         0.0947 
    112 H112       23.7481    1.5277   -8.9482 H         1 UNK         0.0806 
    113 H113       23.3671    3.0619   -9.7203 H         1 UNK         0.0806 
    114 H114       23.1115    2.8657   -7.9940 H         1 UNK         0.0806 
    115 H115       26.3700    0.9216   -9.2524 H         1 UNK         0.3000 
    116 H116       27.2405    1.6567  -11.9056 H         1 UNK         0.0850 
    117 H117       28.3593   -0.5806  -11.8147 H         1 UNK         0.0810 
    118 H118       26.6943   -0.6863  -11.2646 H         1 UNK         0.0810 
    119 H119       28.0117   -0.6971  -10.0942 H         1 UNK         0.0810 
    120 H120       28.5853    2.2066   -8.7889 H         1 UNK         0.3040 
    121 H121       30.4839    2.8884   -7.9087 H         1 UNK         0.0766 
    122 H122       31.3655    3.8068  -10.6993 H         1 UNK         0.0812 
    123 H123       32.0552    4.3149   -9.1664 H         1 UNK         0.0812 
    124 H124       30.4059    4.7641   -9.5708 H         1 UNK         0.0812 
    125 H125       30.2043    0.2580   -8.3321 H         1 UNK         0.3205 
    126 H126       32.1338   -1.0700   -9.8979 H         1 UNK         0.0754 
    127 H127       31.3846   -3.0937   -8.6094 H         1 UNK         0.0769 
    128 H128       30.0244   -2.1198   -9.1440 H         1 UNK         0.0769 
    129 H129       30.5532   -2.0487   -7.4647 H         1 UNK         0.0769 
    130 H130       32.4881    0.2507   -6.6719 H         1 UNK         0.2981 
    131 H131       34.9035   -1.2502   -6.0536 H         1 UNK         0.0541 
    132 H132       36.1076    1.9549   -8.1279 H         1 UNK         0.3459 
    133 H133       34.4664    1.3656   -8.2349 H         1 UNK         0.3459 
    134 H134       33.9177    1.2087   -4.5566 H         1 UNK         0.0612 
    135 H135       34.9924   -0.0361   -3.9728 H         1 UNK         0.0612 
    136 H136       33.8986   -2.7091   -4.6140 H         1 UNK         0.0624 
    137 H137       33.9870   -2.4811   -2.8817 H         1 UNK         0.0624 
@<TRIPOS>BOND
     1    1    2 1    
     2    1   72 1    
     3    1   73 1    
     4    1   74 1    
     5    2    3 2    
     6    2    4 am   BACKBONE|DICT|INTERRES
     7    4    5 1    
     8    4   75 1    
     9    5    6 1    
    10    5   35 1    
    11    5   76 1    
    12    6    7 1    
    13    6   77 1    
    14    6   78 1    
    15    7    8 1    
    16    8    9 1    
    17    8   79 1    
    18    8   80 1    
    19    9   10 ar   
    20    9   14 ar   
    21   10   11 ar   
    22   10   81 1    
    23   11   12 ar   
    24   11   71 1    
    25   12   13 ar   
    26   12   82 1    
    27   13   14 ar   
    28   13   15 1    
    29   14   83 1    
    30   15   16 1    
    31   15   84 1    
    32   15   85 1    
    33   16   17 1    
    34   17   18 1    
    35   17   86 1    
    36   17   87 1    
    37   18   19 1    
    38   18   37 1    
    39   18   88 1    
    40   19   20 am   BACKBONE|DICT|INTERRES
    41   19   89 1    
    42   20   21 2    
    43   20   22 1    
    44   22   23 1    
    45   22   24 1    
    46   22   90 1    
    47   23   91 1    
    48   23   92 1    
    49   23   93 1    
    50   24   25 am   BACKBONE|DICT|INTERRES
    51   24   94 1    
    52   25   26 2    
    53   25   27 1    
    54   27   28 1    
    55   27   29 1    
    56   27   95 1    
    57   28   96 1    
    58   28   97 1    
    59   28   98 1    
    60   29   30 am   BACKBONE|DICT|INTERRES
    61   29   99 1    
    62   30   31 2    
    63   30   32 1    
    64   32   33 1    
    65   32   34 1    
    66   32  100 1    
    67   33  101 1    
    68   33  102 1    
    69   33  103 1    
    70   34   35 am   BACKBONE|DICT|INTERRES
    71   34  104 1    
    72   35   36 2    
    73   37   38 2    
    74   37   39 am   BACKBONE|DICT|INTERRES
    75   39   40 1    
    76   39  105 1    
    77   40   41 1    
    78   40   42 1    
    79   40  106 1    
    80   41  107 1    
    81   41  108 1    
    82   41  109 1    
    83   42   43 2    
    84   42   44 am   BACKBONE|DICT|INTERRES
    85   44   45 1    
    86   44  110 1    
    87   45   46 1    
    88   45   47 1    
    89   45  111 1    
    90   46  112 1    
    91   46  113 1    
    92   46  114 1    
    93   47   48 2    
    94   47   49 am   BACKBONE|DICT|INTERRES
    95   49   50 1    
    96   49  115 1    
    97   50   51 1    
    98   50   52 1    
    99   50  116 1    
   100   51  117 1    
   101   51  118 1    
   102   51  119 1    
   103   52   53 2    
   104   52   54 am   BACKBONE|DICT|INTERRES
   105   54   55 1    
   106   54  120 1    
   107   55   56 1    
   108   55   57 1    
   109   55  121 1    
   110   56  122 1    
   111   56  123 1    
   112   56  124 1    
   113   57   58 2    
   114   57   59 am   BACKBONE|DICT|INTERRES
   115   59   60 1    
   116   59  125 1    
   117   60   61 1    
   118   60   62 1    
   119   60  126 1    
   120   61  127 1    
   121   61  128 1    
   122   61  129 1    
   123   62   63 2    
   124   62   64 am   BACKBONE|DICT|INTERRES
   125   64   65 1    
   126   64  130 1    
   127   65   66 1    
   128   65   69 1    
   129   65  131 1    
   130   66   67 am   BACKBONE|DICT|INTERRES
   131   66   68 2    
   132   67  132 1    
   133   67  133 1    
   134   69   70 1    
   135   69  134 1    
   136   69  135 1    
   137   70   71 1    
   138   71  136 1    
   139   71  137 1    
@<TRIPOS>SUBSTRUCTURE
     1 UNK         1 GROUP             0       ****    0 ROOT    
