@<TRIPOS>MOLECULE
3R137
137   139    1
SMALL
USER_CHARGES


@<TRIPOS>ATOM
      1 CA         26.1665   -4.9226    2.1804 C.3       0 UNK        -0.2020 
      2 C          26.7599   -4.0210    1.1085 C.2       0 UNK         0.4855 
      3 O          27.1935   -2.9104    1.4140 O.2       0 UNK        -0.5197 
      4 N          26.7706   -4.4832   -0.1488 N.am      1 UNK        -0.4892 
      5 CA         27.3281   -3.7684   -1.3068 C.3       1 UNK         0.0835 
      6 C6         27.9270   -4.7450   -2.3536 C.3       12 UNK        -0.0855 
      7 S7         29.5998   -5.2808   -1.8613 S.3       12 UNK        -0.2931 
      8 C8         30.6246   -4.6856   -3.2595 C.3       12 UNK         0.0378 
      9 C9         30.6866   -3.1668   -3.4593 C.ar      12 UNK        -0.0802 
     10 C10        30.9691   -2.6699   -4.7384 C.ar      12 UNK        -0.0944 
     11 C11        31.0749   -1.2946   -4.9638 C.ar      12 UNK        -0.0787 
     12 C12        30.9042   -0.4119   -3.8982 C.ar      12 UNK        -0.0862 
     13 C13        30.5797   -0.8783   -2.6223 C.ar      12 UNK        -0.0733 
     14 C14        30.5035   -2.2593   -2.4054 C.ar      12 UNK        -0.0832 
     15 C15        30.3234    0.0947   -1.4703 C.3       12 UNK         0.0240 
     16 S16        29.4506    1.6338   -1.9548 S.3       12 UNK        -0.2522 
     17 C17        27.8858    0.9929   -2.6402 C.3       12 UNK        -0.0967 
     18 CA         27.8398    1.0627   -4.1947 C.3       5 UNK         0.0660 
     19 N          27.3486   -0.1812   -4.7879 N.am      5 UNK        -0.4015 
     20 C          27.4431   -0.5198   -6.0806 C.2       4 UNK         0.4946 
     21 O          27.9951    0.1657   -6.9404 O.2       4 UNK        -0.5353 
     22 CA         26.7890   -1.8439   -6.4954 C.3       4 UNK         0.0277 
     23 CB         27.7496   -3.0159   -6.2480 C.3       4 UNK        -0.1981 
     24 N          25.5245   -2.0779   -5.7960 N.am      4 UNK        -0.4209 
     25 C          24.4060   -1.3693   -6.0042 C.2       3 UNK         0.4942 
     26 O          24.3141   -0.4578   -6.8267 O.2       3 UNK        -0.5208 
     27 CA         23.1972   -1.7133   -5.1181 C.3       3 UNK         0.0250 
     28 CB         22.4778   -2.9675   -5.6398 C.3       3 UNK        -0.1990 
     29 N          23.5498   -1.8953   -3.7064 N.am      3 UNK        -0.4232 
     30 C          24.0300   -0.9212   -2.9215 C.2       2 UNK         0.4993 
     31 O          24.2560    0.2254   -3.3085 O.2       2 UNK        -0.5286 
     32 CA         24.3507   -1.2944   -1.4650 C.3       2 UNK         0.0209 
     33 CB         23.0585   -1.4783   -0.6518 C.3       2 UNK        -0.1931 
     34 N          25.2248   -2.4604   -1.2677 N.am      2 UNK        -0.4546 
     35 C          26.3580   -2.7409   -1.9299 C.2       1 UNK         0.5154 
     36 O          26.6812   -2.1921   -2.9817 O.2       1 UNK        -0.5181 
     37 C          27.0669    2.2901   -4.7118 C.2       5 UNK         0.5014 
     38 O          27.6920    3.2960   -5.0501 O.2       5 UNK        -0.5248 
     39 N          25.7331    2.1767   -4.8059 N.am      6 UNK        -0.4434 
     40 CA         24.8540    3.1950   -5.3861 C.3       6 UNK         0.0363 
     41 CB         23.3863    2.8241   -5.1201 C.3       6 UNK        -0.1936 
     42 C          25.0944    3.4049   -6.8909 C.2       6 UNK         0.5081 
     43 O          25.1041    4.5486   -7.3471 O.2       6 UNK        -0.5248 
     44 N          25.2916    2.3058   -7.6321 N.am      7 UNK        -0.4718 
     45 CA         25.5805    2.3231   -9.0687 C.3       7 UNK         0.0273 
     46 CB         25.3051    0.9263   -9.6482 C.3       7 UNK        -0.1935 
     47 C          27.0173    2.7590   -9.4098 C.2       7 UNK         0.5018 
     48 O          27.2443    3.2191  -10.5294 O.2       7 UNK        -0.5186 
     49 N          27.9521    2.5692   -8.4650 N.am      8 UNK        -0.4240 
     50 CA         29.4112    2.6533   -8.6146 C.3       8 UNK         0.0235 
     51 CB         29.8670    4.0948   -8.9234 C.3       8 UNK        -0.2000 
     52 C          29.9114    1.6165   -9.6389 C.2       8 UNK         0.4941 
     53 O          30.6014    1.9656  -10.5997 O.2       8 UNK        -0.5273 
     54 N          29.4941    0.3584   -9.4380 N.am      9 UNK        -0.4262 
     55 CA         29.6076   -0.7567  -10.3844 C.3       9 UNK         0.0264 
     56 CB         28.6166   -1.8583   -9.9677 C.3       9 UNK        -0.1955 
     57 C          31.0399   -1.2981  -10.5844 C.2       9 UNK         0.5031 
     58 O          31.2921   -2.4775  -10.3320 O.2       9 UNK        -0.5390 
     59 N          31.9418   -0.4308  -11.0633 N.am      10 UNK        -0.4204 
     60 CA         33.3037   -0.7102  -11.5469 C.3       10 UNK         0.0237 
     61 CB         33.2491   -1.5645  -12.8320 C.3       10 UNK        -0.1985 
     62 C          34.2773   -1.2950  -10.5009 C.2       10 UNK         0.4970 
     63 O          35.2968   -1.8756  -10.8794 O.2       10 UNK        -0.4914 
     64 N          33.9688   -1.1186   -9.2126 N.am      11 UNK        -0.4285 
     65 CA         34.8312   -1.4658   -8.0755 C.3       11 UNK         0.1007 
     66 C          36.0979   -0.5683   -7.9710 C.2       11 UNK         0.5703 
     67 N          37.1389   -1.0462   -7.3019 N.am      11 UNK        -0.7361 
     68 O          36.1418    0.5576   -8.4653 O.2       11 UNK        -0.4986 
     69 C69        34.0271   -1.5036   -6.7476 C.3       12 UNK        -0.0947 
     70 S70        33.0067   -0.0134   -6.4713 S.3       12 UNK        -0.2240 
     71 C71        31.3434   -0.7377   -6.3539 C.3       12 UNK         0.0194 
     72 H72        25.8130   -5.8682    1.7698 H         1 UNK         0.0906 
     73 H73        26.9154   -5.1428    2.9407 H         1 UNK         0.0906 
     74 H74        25.3253   -4.4274    2.6648 H         1 UNK         0.0906 
     75 H75        26.3966   -5.4025   -0.3415 H         1 UNK         0.3140 
     76 H76        28.1420   -3.1401   -0.9427 H         1 UNK         0.1085 
     77 H77        27.2896   -5.6211   -2.4827 H         1 UNK         0.0836 
     78 H78        28.0020   -4.2946   -3.3414 H         1 UNK         0.0836 
     79 H79        30.2601   -5.1629   -4.1708 H         1 UNK         0.0731 
     80 H80        31.6427   -5.0481   -3.1127 H         1 UNK         0.0731 
     81 H81        31.1103   -3.3562   -5.5622 H         1 UNK         0.1312 
     82 H82        31.0066    0.6494   -4.0750 H         1 UNK         0.1406 
     83 H83        30.3068   -2.6254   -1.4085 H         1 UNK         0.1631 
     84 H84        31.2818    0.3639   -1.0250 H         1 UNK         0.0717 
     85 H85        29.7439   -0.3939   -0.6852 H         1 UNK         0.0717 
     86 H86        27.7805   -0.0329   -2.2915 H         1 UNK         0.0934 
     87 H87        27.0522    1.5286   -2.1814 H         1 UNK         0.0934 
     88 H88        28.8535    1.1830   -4.5755 H         1 UNK         0.0739 
     89 H89        26.9385   -0.8586   -4.1466 H         1 UNK         0.3093 
     90 H90        26.5783   -1.7924   -7.5654 H         1 UNK         0.0818 
     91 H91        28.0164   -3.0937   -5.1961 H         1 UNK         0.0819 
     92 H92        27.3162   -3.9653   -6.5624 H         1 UNK         0.0819 
     93 H93        28.6814   -2.8836   -6.7972 H         1 UNK         0.0819 
     94 H94        25.5362   -2.7526   -5.0441 H         1 UNK         0.3041 
     95 H95        22.5006   -0.8741   -5.1789 H         1 UNK         0.0784 
     96 H96        22.1943   -2.8465   -6.6865 H         1 UNK         0.0793 
     97 H97        23.1077   -3.8554   -5.5733 H         1 UNK         0.0793 
     98 H98        21.5631   -3.1617   -5.0793 H         1 UNK         0.0793 
     99 H99        23.4159   -2.8135   -3.3082 H         1 UNK         0.3024 
    100 H100       24.8855   -0.4402   -1.0441 H         1 UNK         0.1171 
    101 H101       22.3911   -0.6240   -0.7771 H         1 UNK         0.0786 
    102 H102       23.2697   -1.5655    0.4142 H         1 UNK         0.0786 
    103 H103       22.5094   -2.3694   -0.9583 H         1 UNK         0.0786 
    104 H104       25.0628   -2.9913   -0.4243 H         1 UNK         0.2977 
    105 H105       25.2797    1.3406   -4.4413 H         1 UNK         0.3127 
    106 H106       25.0623    4.1413   -4.8822 H         1 UNK         0.0770 
    107 H107       23.1266    1.8623   -5.5646 H         1 UNK         0.0814 
    108 H108       22.7113    3.5719   -5.5384 H         1 UNK         0.0814 
    109 H109       23.1810    2.7632   -4.0512 H         1 UNK         0.0814 
    110 H110       25.2000    1.3940   -7.1947 H         1 UNK         0.2983 
    111 H111       24.9021    3.0320   -9.5489 H         1 UNK         0.0947 
    112 H112       25.5055    0.8972  -10.7202 H         1 UNK         0.0806 
    113 H113       24.2642    0.6359   -9.5044 H         1 UNK         0.0806 
    114 H114       25.9305    0.1679   -9.1765 H         1 UNK         0.0806 
    115 H115       27.6449    2.1166   -7.6113 H         1 UNK         0.3000 
    116 H116       29.8369    2.3703   -7.6504 H         1 UNK         0.0850 
    117 H117       30.9554    4.1644   -8.9259 H         1 UNK         0.0810 
    118 H118       29.4979    4.7945   -8.1735 H         1 UNK         0.0810 
    119 H119       29.5196    4.4343   -9.8995 H         1 UNK         0.0810 
    120 H120       28.9466    0.1831   -8.5977 H         1 UNK         0.3040 
    121 H121       29.2825   -0.3879  -11.3596 H         1 UNK         0.0766 
    122 H122       27.5965   -1.4792   -9.9136 H         1 UNK         0.0812 
    123 H123       28.8747   -2.2783   -8.9970 H         1 UNK         0.0812 
    124 H124       28.6161   -2.6782  -10.6872 H         1 UNK         0.0812 
    125 H125       31.6275    0.5365  -11.1438 H         1 UNK         0.3205 
    126 H126       33.7218    0.2599  -11.8194 H         1 UNK         0.0754 
    127 H127       34.2351   -1.6549  -13.2896 H         1 UNK         0.0769 
    128 H128       32.5907   -1.1183  -13.5775 H         1 UNK         0.0769 
    129 H129       32.8907   -2.5744  -12.6292 H         1 UNK         0.0769 
    130 H130       33.1292   -0.6100   -8.9826 H         1 UNK         0.2981 
    131 H131       35.1921   -2.4799   -8.2591 H         1 UNK         0.0541 
    132 H132       37.1157   -1.9639   -6.8850 H         1 UNK         0.3459 
    133 H133       37.9666   -0.4775   -7.2139 H         1 UNK         0.3459 
    134 H134       33.3818   -2.3829   -6.7509 H         1 UNK         0.0612 
    135 H135       34.6867   -1.6369   -5.8884 H         1 UNK         0.0612 
    136 H136       31.2034   -1.4976   -7.1246 H         1 UNK         0.0624 
    137 H137       30.6167    0.0466   -6.5651 H         1 UNK         0.0624 
@<TRIPOS>BOND
     1    1    2 1    
     2    1   72 1    
     3    1   73 1    
     4    1   74 1    
     5    2    3 2    
     6    2    4 am   BACKBONE|DICT|INTERRES
     7    4    5 1    
     8    4   75 1    
     9    5    6 1    
    10    5   35 1    
    11    5   76 1    
    12    6    7 1    
    13    6   77 1    
    14    6   78 1    
    15    7    8 1    
    16    8    9 1    
    17    8   79 1    
    18    8   80 1    
    19    9   10 ar   
    20    9   14 ar   
    21   10   11 ar   
    22   10   81 1    
    23   11   12 ar   
    24   11   71 1    
    25   12   13 ar   
    26   12   82 1    
    27   13   14 ar   
    28   13   15 1    
    29   14   83 1    
    30   15   16 1    
    31   15   84 1    
    32   15   85 1    
    33   16   17 1    
    34   17   18 1    
    35   17   86 1    
    36   17   87 1    
    37   18   19 1    
    38   18   37 1    
    39   18   88 1    
    40   19   20 am   BACKBONE|DICT|INTERRES
    41   19   89 1    
    42   20   21 2    
    43   20   22 1    
    44   22   23 1    
    45   22   24 1    
    46   22   90 1    
    47   23   91 1    
    48   23   92 1    
    49   23   93 1    
    50   24   25 am   BACKBONE|DICT|INTERRES
    51   24   94 1    
    52   25   26 2    
    53   25   27 1    
    54   27   28 1    
    55   27   29 1    
    56   27   95 1    
    57   28   96 1    
    58   28   97 1    
    59   28   98 1    
    60   29   30 am   BACKBONE|DICT|INTERRES
    61   29   99 1    
    62   30   31 2    
    63   30   32 1    
    64   32   33 1    
    65   32   34 1    
    66   32  100 1    
    67   33  101 1    
    68   33  102 1    
    69   33  103 1    
    70   34   35 am   BACKBONE|DICT|INTERRES
    71   34  104 1    
    72   35   36 2    
    73   37   38 2    
    74   37   39 am   BACKBONE|DICT|INTERRES
    75   39   40 1    
    76   39  105 1    
    77   40   41 1    
    78   40   42 1    
    79   40  106 1    
    80   41  107 1    
    81   41  108 1    
    82   41  109 1    
    83   42   43 2    
    84   42   44 am   BACKBONE|DICT|INTERRES
    85   44   45 1    
    86   44  110 1    
    87   45   46 1    
    88   45   47 1    
    89   45  111 1    
    90   46  112 1    
    91   46  113 1    
    92   46  114 1    
    93   47   48 2    
    94   47   49 am   BACKBONE|DICT|INTERRES
    95   49   50 1    
    96   49  115 1    
    97   50   51 1    
    98   50   52 1    
    99   50  116 1    
   100   51  117 1    
   101   51  118 1    
   102   51  119 1    
   103   52   53 2    
   104   52   54 am   BACKBONE|DICT|INTERRES
   105   54   55 1    
   106   54  120 1    
   107   55   56 1    
   108   55   57 1    
   109   55  121 1    
   110   56  122 1    
   111   56  123 1    
   112   56  124 1    
   113   57   58 2    
   114   57   59 am   BACKBONE|DICT|INTERRES
   115   59   60 1    
   116   59  125 1    
   117   60   61 1    
   118   60   62 1    
   119   60  126 1    
   120   61  127 1    
   121   61  128 1    
   122   61  129 1    
   123   62   63 2    
   124   62   64 am   BACKBONE|DICT|INTERRES
   125   64   65 1    
   126   64  130 1    
   127   65   66 1    
   128   65   69 1    
   129   65  131 1    
   130   66   67 am   BACKBONE|DICT|INTERRES
   131   66   68 2    
   132   67  132 1    
   133   67  133 1    
   134   69   70 1    
   135   69  134 1    
   136   69  135 1    
   137   70   71 1    
   138   71  136 1    
   139   71  137 1    
@<TRIPOS>SUBSTRUCTURE
     1 UNK         1 GROUP             0       ****    0 ROOT    
