@<TRIPOS>MOLECULE
3R137
137   139    1
SMALL
USER_CHARGES


@<TRIPOS>ATOM
      1 CA         24.6398   -6.7569    0.6264 C.3       0 UNK        -0.2020 
      2 C          25.4120   -5.4656    0.8512 C.2       0 UNK         0.4855 
      3 O          25.2266   -4.8132    1.8787 O.2       0 UNK        -0.5197 
      4 N          26.2784   -5.0930   -0.1010 N.am      1 UNK        -0.4892 
      5 CA         27.0872   -3.8656   -0.0638 C.3       1 UNK         0.0835 
      6 C6         28.2390   -3.9256   -1.0995 C.3       12 UNK        -0.0855 
      7 S7         29.7049   -2.9696   -0.5825 S.3       12 UNK        -0.2931 
      8 C8         31.0502   -3.8966   -1.3897 C.3       12 UNK         0.0378 
      9 C9         31.1424   -3.5799   -2.8763 C.ar      12 UNK        -0.0802 
     10 C10        32.0974   -2.6692   -3.3432 C.ar      12 UNK        -0.0944 
     11 C11        32.2063   -2.3946   -4.7095 C.ar      12 UNK        -0.0787 
     12 C12        31.3251   -3.0118   -5.6001 C.ar      12 UNK        -0.0862 
     13 C13        30.3584   -3.9161   -5.1532 C.ar      12 UNK        -0.0733 
     14 C14        30.2907   -4.2141   -3.7882 C.ar      12 UNK        -0.0832 
     15 C15        29.4451   -4.5901   -6.1770 C.3       12 UNK         0.0240 
     16 S16        27.7259   -4.8827   -5.6291 S.3       12 UNK        -0.2522 
     17 C17        27.1354   -3.2289   -5.1391 C.3       12 UNK        -0.0967 
     18 CA         26.7827   -2.2966   -6.3332 C.3       5 UNK         0.0660 
     19 N          25.5606   -1.5246   -6.0827 N.am      5 UNK        -0.4015 
     20 C          24.9192   -0.7832   -7.0003 C.2       4 UNK         0.4946 
     21 O          25.2541   -0.7164   -8.1825 O.2       4 UNK        -0.5353 
     22 CA         23.7261    0.0628   -6.5178 C.3       4 UNK         0.0277 
     23 CB         22.4230   -0.7473   -6.6062 C.3       4 UNK        -0.1981 
     24 N          23.8891    0.5780   -5.1563 N.am      4 UNK        -0.4209 
     25 C          24.8655    1.4091   -4.7628 C.2       3 UNK         0.4942 
     26 O          25.6947    1.8970   -5.5282 O.2       3 UNK        -0.5208 
     27 CA         24.9766    1.7025   -3.2561 C.3       3 UNK         0.0250 
     28 CB         24.2438    3.0082   -2.9098 C.3       3 UNK        -0.1990 
     29 N          24.4877    0.6215   -2.3900 N.am      3 UNK        -0.4232 
     30 C          24.9454   -0.6387   -2.3942 C.2       2 UNK         0.4993 
     31 O          25.8050   -1.0550   -3.1766 O.2       2 UNK        -0.5286 
     32 CA         24.2666   -1.6106   -1.4165 C.3       2 UNK         0.0209 
     33 CB         22.9930   -2.1961   -2.0495 C.3       2 UNK        -0.1931 
     34 N          25.1561   -2.7110   -1.0470 N.am      2 UNK        -0.4546 
     35 C          26.2302   -2.5939   -0.2530 C.2       1 UNK         0.5154 
     36 O          26.5368   -1.5522    0.3302 O.2       1 UNK        -0.5181 
     37 C          27.9494   -1.3452   -6.6529 C.2       5 UNK         0.5014 
     38 O          28.6380   -1.5210   -7.6606 O.2       5 UNK        -0.5248 
     39 N          28.1143   -0.3279   -5.7950 N.am      6 UNK        -0.4434 
     40 CA         29.1520    0.6903   -5.9183 C.3       6 UNK         0.0363 
     41 CB         29.2160    1.5374   -4.6391 C.3       6 UNK        -0.1936 
     42 C          28.9903    1.5713   -7.1629 C.2       6 UNK         0.5081 
     43 O          29.9926    1.8957   -7.7984 O.2       6 UNK        -0.5248 
     44 N          27.7417    1.9115   -7.5081 N.am      7 UNK        -0.4718 
     45 CA         27.3816    2.6344   -8.7276 C.3       7 UNK         0.0273 
     46 CB         25.9053    3.0557   -8.6625 C.3       7 UNK        -0.1935 
     47 C          27.6588    1.8216  -10.0021 C.2       7 UNK         0.5018 
     48 O          28.1859    2.3827  -10.9626 O.2       7 UNK        -0.5186 
     49 N          27.3239    0.5217   -9.9862 N.am      8 UNK        -0.4240 
     50 CA         27.5679   -0.4074  -11.0938 C.3       8 UNK         0.0235 
     51 CB         26.8372   -1.7355  -10.8380 C.3       8 UNK        -0.2000 
     52 C          29.0634   -0.6508  -11.3504 C.2       8 UNK         0.4941 
     53 O          29.4866   -0.6379  -12.5071 O.2       8 UNK        -0.5273 
     54 N          29.8370   -0.8515  -10.2745 N.am      9 UNK        -0.4262 
     55 CA         31.2913   -1.0293  -10.3342 C.3       9 UNK         0.0264 
     56 CB         31.7624   -1.6929   -9.0355 C.3       9 UNK        -0.1955 
     57 C          32.0667    0.2797  -10.5637 C.2       9 UNK         0.5031 
     58 O          33.2195    0.2205  -10.9933 O.2       9 UNK        -0.5390 
     59 N          31.4378    1.4199  -10.2459 N.am      10 UNK        -0.4204 
     60 CA         31.9879    2.7788  -10.2323 C.3       10 UNK         0.0237 
     61 CB         32.4156    3.2294  -11.6459 C.3       10 UNK        -0.1985 
     62 C          33.0885    2.9701   -9.1679 C.2       10 UNK         0.4970 
     63 O          34.0029    3.7697   -9.3778 O.2       10 UNK        -0.4914 
     64 N          32.9746    2.2519   -8.0407 N.am      11 UNK        -0.4285 
     65 CA         33.8541    2.3974   -6.8685 C.3       11 UNK         0.1007 
     66 C          33.3816    3.4888   -5.8638 C.2       11 UNK         0.5703 
     67 N          32.1823    4.0447   -6.0023 N.am      11 UNK        -0.7361 
     68 O          34.1263    3.8524   -4.9564 O.2       11 UNK        -0.4986 
     69 C69        34.1586    1.0357   -6.1838 C.3       12 UNK        -0.0947 
     70 S70        32.7174    0.2414   -5.3983 S.3       12 UNK        -0.2240 
     71 C71        33.2989   -1.4713   -5.2351 C.3       12 UNK         0.0194 
     72 H72        23.5688   -6.5563    0.6159 H         1 UNK         0.0906 
     73 H73        24.9045   -7.2334   -0.3172 H         1 UNK         0.0906 
     74 H74        24.8461   -7.4621    1.4311 H         1 UNK         0.0906 
     75 H75        26.3947   -5.6771   -0.9174 H         1 UNK         0.3140 
     76 H76        27.5237   -3.8086    0.9364 H         1 UNK         0.1085 
     77 H77        28.5560   -4.9615   -1.2282 H         1 UNK         0.0836 
     78 H78        27.9140   -3.5885   -2.0859 H         1 UNK         0.0836 
     79 H79        31.9891   -3.6417   -0.8958 H         1 UNK         0.0731 
     80 H80        30.9156   -4.9686   -1.2378 H         1 UNK         0.0731 
     81 H81        32.7697   -2.1878   -2.6460 H         1 UNK         0.1312 
     82 H82        31.4052   -2.8019   -6.6530 H         1 UNK         0.1406 
     83 H83        29.5692   -4.9370   -3.4354 H         1 UNK         0.1631 
     84 H84        29.4138   -4.0104   -7.1002 H         1 UNK         0.0717 
     85 H85        29.8853   -5.5519   -6.4426 H         1 UNK         0.0717 
     86 H86        26.2428   -3.4136   -4.5390 H         1 UNK         0.0934 
     87 H87        27.8413   -2.7724   -4.4421 H         1 UNK         0.0934 
     88 H88        26.5959   -2.9045   -7.2212 H         1 UNK         0.0739 
     89 H89        25.2762   -1.4546   -5.1120 H         1 UNK         0.3093 
     90 H90        23.6409    0.9213   -7.1870 H         1 UNK         0.0818 
     91 H91        21.5565   -0.1348   -6.3563 H         1 UNK         0.0819 
     92 H92        22.2681   -1.1256   -7.6178 H         1 UNK         0.0819 
     93 H93        22.4330   -1.6070   -5.9349 H         1 UNK         0.0819 
     94 H94        23.2445    0.2378   -4.4583 H         1 UNK         0.3041 
     95 H95        26.0374    1.8378   -3.0352 H         1 UNK         0.0784 
     96 H96        24.6059    3.8335   -3.5250 H         1 UNK         0.0793 
     97 H97        23.1688    2.9255   -3.0758 H         1 UNK         0.0793 
     98 H98        24.4035    3.2901   -1.8688 H         1 UNK         0.0793 
     99 H99        23.7645    0.8720   -1.7304 H         1 UNK         0.3024 
    100 H100       23.9982   -1.0666   -0.5078 H         1 UNK         0.1171 
    101 H101       22.4886   -2.8788   -1.3653 H         1 UNK         0.0786 
    102 H102       22.2796   -1.4100   -2.3004 H         1 UNK         0.0786 
    103 H103       23.2119   -2.7432   -2.9677 H         1 UNK         0.0786 
    104 H104       24.9863   -3.6024   -1.4877 H         1 UNK         0.2977 
    105 H105       27.4839   -0.2486   -5.0087 H         1 UNK         0.3127 
    106 H106       30.0903    0.1522   -6.0302 H         1 UNK         0.0770 
    107 H107       28.2876    2.0829   -4.4673 H         1 UNK         0.0814 
    108 H108       30.0208    2.2712   -4.7016 H         1 UNK         0.0814 
    109 H109       29.4129    0.9179   -3.7640 H         1 UNK         0.0814 
    110 H110       26.9822    1.6796   -6.8715 H         1 UNK         0.2983 
    111 H111       27.9935    3.5381   -8.7713 H         1 UNK         0.0947 
    112 H112       25.6219    3.6253   -9.5486 H         1 UNK         0.0806 
    113 H113       25.7113    3.6866   -7.7948 H         1 UNK         0.0806 
    114 H114       25.2422    2.1923   -8.6023 H         1 UNK         0.0806 
    115 H115       26.8521    0.1431   -9.1705 H         1 UNK         0.3000 
    116 H116       27.1484    0.0389  -11.9980 H         1 UNK         0.0850 
    117 H117       27.0136   -2.4427  -11.6496 H         1 UNK         0.0810 
    118 H118       25.7597   -1.5859  -10.7679 H         1 UNK         0.0810 
    119 H119       27.1685   -2.2086   -9.9129 H         1 UNK         0.0810 
    120 H120       29.3984   -0.9147   -9.3578 H         1 UNK         0.3040 
    121 H121       31.5263   -1.6996  -11.1638 H         1 UNK         0.0766 
    122 H122       31.2880   -2.6655   -8.9064 H         1 UNK         0.0812 
    123 H123       31.5265   -1.0752   -8.1675 H         1 UNK         0.0812 
    124 H124       32.8414   -1.8541   -9.0411 H         1 UNK         0.0812 
    125 H125       30.5147    1.3400   -9.8357 H         1 UNK         0.3205 
    126 H126       31.1641    3.4239   -9.9234 H         1 UNK         0.0754 
    127 H127       32.6679    4.2904  -11.6580 H         1 UNK         0.0769 
    128 H128       31.6123    3.0805  -12.3676 H         1 UNK         0.0769 
    129 H129       33.2912    2.6846  -11.9996 H         1 UNK         0.0769 
    130 H130       32.1452    1.6856   -7.9115 H         1 UNK         0.2981 
    131 H131       34.8196    2.7586   -7.2273 H         1 UNK         0.0541 
    132 H132       31.5596    3.7374   -6.7331 H         1 UNK         0.3459 
    133 H133       31.8917    4.7584   -5.3535 H         1 UNK         0.3459 
    134 H134       34.9324    1.1600   -5.4243 H         1 UNK         0.0612 
    135 H135       34.5754    0.3491   -6.9222 H         1 UNK         0.0612 
    136 H136       34.1645   -1.4937   -4.5714 H         1 UNK         0.0624 
    137 H137       33.6452   -1.8281   -6.2064 H         1 UNK         0.0624 
@<TRIPOS>BOND
     1    1    2 1    
     2    1   72 1    
     3    1   73 1    
     4    1   74 1    
     5    2    3 2    
     6    2    4 am   BACKBONE|DICT|INTERRES
     7    4    5 1    
     8    4   75 1    
     9    5    6 1    
    10    5   35 1    
    11    5   76 1    
    12    6    7 1    
    13    6   77 1    
    14    6   78 1    
    15    7    8 1    
    16    8    9 1    
    17    8   79 1    
    18    8   80 1    
    19    9   10 ar   
    20    9   14 ar   
    21   10   11 ar   
    22   10   81 1    
    23   11   12 ar   
    24   11   71 1    
    25   12   13 ar   
    26   12   82 1    
    27   13   14 ar   
    28   13   15 1    
    29   14   83 1    
    30   15   16 1    
    31   15   84 1    
    32   15   85 1    
    33   16   17 1    
    34   17   18 1    
    35   17   86 1    
    36   17   87 1    
    37   18   19 1    
    38   18   37 1    
    39   18   88 1    
    40   19   20 am   BACKBONE|DICT|INTERRES
    41   19   89 1    
    42   20   21 2    
    43   20   22 1    
    44   22   23 1    
    45   22   24 1    
    46   22   90 1    
    47   23   91 1    
    48   23   92 1    
    49   23   93 1    
    50   24   25 am   BACKBONE|DICT|INTERRES
    51   24   94 1    
    52   25   26 2    
    53   25   27 1    
    54   27   28 1    
    55   27   29 1    
    56   27   95 1    
    57   28   96 1    
    58   28   97 1    
    59   28   98 1    
    60   29   30 am   BACKBONE|DICT|INTERRES
    61   29   99 1    
    62   30   31 2    
    63   30   32 1    
    64   32   33 1    
    65   32   34 1    
    66   32  100 1    
    67   33  101 1    
    68   33  102 1    
    69   33  103 1    
    70   34   35 am   BACKBONE|DICT|INTERRES
    71   34  104 1    
    72   35   36 2    
    73   37   38 2    
    74   37   39 am   BACKBONE|DICT|INTERRES
    75   39   40 1    
    76   39  105 1    
    77   40   41 1    
    78   40   42 1    
    79   40  106 1    
    80   41  107 1    
    81   41  108 1    
    82   41  109 1    
    83   42   43 2    
    84   42   44 am   BACKBONE|DICT|INTERRES
    85   44   45 1    
    86   44  110 1    
    87   45   46 1    
    88   45   47 1    
    89   45  111 1    
    90   46  112 1    
    91   46  113 1    
    92   46  114 1    
    93   47   48 2    
    94   47   49 am   BACKBONE|DICT|INTERRES
    95   49   50 1    
    96   49  115 1    
    97   50   51 1    
    98   50   52 1    
    99   50  116 1    
   100   51  117 1    
   101   51  118 1    
   102   51  119 1    
   103   52   53 2    
   104   52   54 am   BACKBONE|DICT|INTERRES
   105   54   55 1    
   106   54  120 1    
   107   55   56 1    
   108   55   57 1    
   109   55  121 1    
   110   56  122 1    
   111   56  123 1    
   112   56  124 1    
   113   57   58 2    
   114   57   59 am   BACKBONE|DICT|INTERRES
   115   59   60 1    
   116   59  125 1    
   117   60   61 1    
   118   60   62 1    
   119   60  126 1    
   120   61  127 1    
   121   61  128 1    
   122   61  129 1    
   123   62   63 2    
   124   62   64 am   BACKBONE|DICT|INTERRES
   125   64   65 1    
   126   64  130 1    
   127   65   66 1    
   128   65   69 1    
   129   65  131 1    
   130   66   67 am   BACKBONE|DICT|INTERRES
   131   66   68 2    
   132   67  132 1    
   133   67  133 1    
   134   69   70 1    
   135   69  134 1    
   136   69  135 1    
   137   70   71 1    
   138   71  136 1    
   139   71  137 1    
@<TRIPOS>SUBSTRUCTURE
     1 UNK         1 GROUP             0       ****    0 ROOT    
