@<TRIPOS>MOLECULE
3R137
137   139    1
SMALL
USER_CHARGES


@<TRIPOS>ATOM
      1 CA         31.8027    0.2630    0.1235 C.3       0 UNK        -0.2020 
      2 C          30.6066   -0.2313   -0.6749 C.2       0 UNK         0.4855 
      3 O          30.2862    0.3429   -1.7149 O.2       0 UNK        -0.5197 
      4 N          29.9357   -1.2889   -0.1986 N.am      1 UNK        -0.4892 
      5 CA         28.7720   -1.9107   -0.8401 C.3       1 UNK         0.0835 
      6 C6         28.6157   -3.3908   -0.4074 C.3       12 UNK        -0.0855 
      7 S7         27.6211   -4.3671   -1.5919 S.3       12 UNK        -0.2931 
      8 C8         28.8670   -5.4637   -2.3438 C.3       12 UNK         0.0378 
      9 C9         29.4776   -4.8586   -3.6003 C.ar      12 UNK        -0.0802 
     10 C10        30.5468   -3.9607   -3.5111 C.ar      12 UNK        -0.0944 
     11 C11        31.1352   -3.4456   -4.6701 C.ar      12 UNK        -0.0787 
     12 C12        30.6303   -3.8179   -5.9189 C.ar      12 UNK        -0.0862 
     13 C13        29.5558   -4.7060   -6.0287 C.ar      12 UNK        -0.0733 
     14 C14        28.9948   -5.2342   -4.8592 C.ar      12 UNK        -0.0832 
     15 C15        29.0835   -5.1040   -7.4296 C.3       12 UNK         0.0240 
     16 S16        27.3543   -5.6848   -7.5920 S.3       12 UNK        -0.2522 
     17 C17        26.3445   -4.3732   -6.8235 C.3       12 UNK        -0.0967 
     18 CA         26.1257   -3.1111   -7.7015 C.3       5 UNK         0.0660 
     19 N          24.8575   -2.4591   -7.3592 N.am      5 UNK        -0.4015 
     20 C          24.3666   -1.3311   -7.8945 C.2       4 UNK         0.4946 
     21 O          24.8620   -0.7515   -8.8606 O.2       4 UNK        -0.5353 
     22 CA         23.1500   -0.7094   -7.1780 C.3       4 UNK         0.0277 
     23 CB         21.8403   -1.2236   -7.7959 C.3       4 UNK        -0.1981 
     24 N          23.1388   -0.9456   -5.7253 N.am      4 UNK        -0.4209 
     25 C          24.1146   -0.5678   -4.8855 C.2       3 UNK         0.4942 
     26 O          25.1048    0.0718   -5.2476 O.2       3 UNK        -0.5208 
     27 CA         24.0046   -1.0649   -3.4329 C.3       3 UNK         0.0250 
     28 CB         24.0968   -2.6016   -3.3750 C.3       3 UNK        -0.1990 
     29 N          25.0811   -0.5204   -2.6054 N.am      3 UNK        -0.4232 
     30 C          25.0854    0.6800   -2.0143 C.2       2 UNK         0.4993 
     31 O          24.1200    1.4459   -2.0321 O.2       2 UNK        -0.5286 
     32 CA         26.3849    1.1223   -1.3041 C.3       2 UNK         0.0209 
     33 CB         26.1084    1.6770    0.1094 C.3       2 UNK        -0.1931 
     34 N          27.4616    0.1162   -1.2749 N.am      2 UNK        -0.4546 
     35 C          27.4938   -1.0614   -0.6332 C.2       1 UNK         0.5154 
     36 O          26.5827   -1.4706    0.0877 O.2       1 UNK        -0.5181 
     37 C          27.3120   -2.1365   -7.5567 C.2       5 UNK         0.5014 
     38 O          28.0885   -1.9625   -8.4960 O.2       5 UNK        -0.5248 
     39 N          27.4061   -1.4989   -6.3824 N.am      6 UNK        -0.4434 
     40 CA         28.4605   -0.5513   -6.0386 C.3       6 UNK         0.0363 
     41 CB         28.4377   -0.2776   -4.5316 C.3       6 UNK        -0.1936 
     42 C          28.3618    0.7549   -6.8306 C.2       6 UNK         0.5081 
     43 O          29.3942    1.2909   -7.2276 O.2       6 UNK        -0.5248 
     44 N          27.1310    1.2199   -7.0852 N.am      7 UNK        -0.4718 
     45 CA         26.8469    2.3724   -7.9434 C.3       7 UNK         0.0273 
     46 CB         25.3518    2.7186   -7.8708 C.3       7 UNK        -0.1935 
     47 C          27.2908    2.1487   -9.4003 C.2       7 UNK         0.5018 
     48 O          27.8405    3.0679  -10.0075 O.2       7 UNK        -0.5186 
     49 N          27.0756    0.9311   -9.9204 N.am      8 UNK        -0.4240 
     50 CA         27.5464    0.5007  -11.2381 C.3       8 UNK         0.0235 
     51 CB         26.8256   -0.7931  -11.6506 C.3       8 UNK        -0.2000 
     52 C          29.0737    0.3205  -11.2902 C.2       8 UNK         0.4941 
     53 O          29.6972    0.7628  -12.2559 O.2       8 UNK        -0.5273 
     54 N          29.6487   -0.3189  -10.2606 N.am      9 UNK        -0.4262 
     55 CA         31.0899   -0.5641  -10.1335 C.3       9 UNK         0.0264 
     56 CB         31.3331   -1.5970   -9.0218 C.3       9 UNK        -0.1955 
     57 C          31.9196    0.7045   -9.8648 C.2       9 UNK         0.5031 
     58 O          33.0884    0.7449  -10.2518 O.2       9 UNK        -0.5390 
     59 N          31.3118    1.6935   -9.1940 N.am      10 UNK        -0.4204 
     60 CA         31.8942    2.9515   -8.7143 C.3       10 UNK         0.0237 
     61 CB         32.3901    3.8284   -9.8845 C.3       10 UNK        -0.1985 
     62 C          32.9532    2.7402   -7.6127 C.2       10 UNK         0.4970 
     63 O          33.9099    3.5132   -7.5276 O.2       10 UNK        -0.4914 
     64 N          32.7630    1.7030   -6.7864 N.am      11 UNK        -0.4285 
     65 CA         33.5914    1.4038   -5.6096 C.3       11 UNK         0.1007 
     66 C          33.2622    2.3086   -4.3868 C.2       11 UNK         0.5703 
     67 N          34.1008    2.2868   -3.3588 N.am      11 UNK        -0.7361 
     68 O          32.2659    3.0296   -4.3548 O.2       11 UNK        -0.4986 
     69 C69        33.5821   -0.1122   -5.2700 C.3       12 UNK        -0.0947 
     70 S70        31.9253   -0.8047   -4.9618 S.3       12 UNK        -0.2240 
     71 C71        32.3500   -2.5312   -4.5897 C.3       12 UNK         0.0194 
     72 H72        31.9963   -0.3581    0.9977 H         1 UNK         0.0906 
     73 H73        32.6955    0.2576   -0.5016 H         1 UNK         0.0906 
     74 H74        31.6306    1.2844    0.4619 H         1 UNK         0.0906 
     75 H75        30.2171   -1.6942    0.6833 H         1 UNK         0.3140 
     76 H76        28.9758   -1.9232   -1.9113 H         1 UNK         0.1085 
     77 H77        29.5992   -3.8531   -0.3157 H         1 UNK         0.0836 
     78 H78        28.1691   -3.4712    0.5856 H         1 UNK         0.0836 
     79 H79        28.3823   -6.4102   -2.5886 H         1 UNK         0.0731 
     80 H80        29.6480   -5.7143   -1.6248 H         1 UNK         0.0731 
     81 H81        30.9350   -3.6815   -2.5412 H         1 UNK         0.1312 
     82 H82        31.0928   -3.4240   -6.8128 H         1 UNK         0.1406 
     83 H83        28.1838   -5.9463   -4.9240 H         1 UNK         0.1631 
     84 H84        29.7349   -5.9034   -7.7846 H         1 UNK         0.0717 
     85 H85        29.2326   -4.2762   -8.1223 H         1 UNK         0.0717 
     86 H86        25.3812   -4.8482   -6.6299 H         1 UNK         0.0934 
     87 H87        26.7291   -4.1235   -5.8339 H         1 UNK         0.0934 
     88 H88        26.0570   -3.4075   -8.7502 H         1 UNK         0.0739 
     89 H89        24.3467   -2.8606   -6.5880 H         1 UNK         0.3093 
     90 H90        23.1978    0.3701   -7.3315 H         1 UNK         0.0818 
     91 H91        20.9739   -0.7203   -7.3663 H         1 UNK         0.0819 
     92 H92        21.8184   -1.0387   -8.8710 H         1 UNK         0.0819 
     93 H93        21.7145   -2.2968   -7.6475 H         1 UNK         0.0819 
     94 H94        22.3503   -1.4584   -5.3561 H         1 UNK         0.3041 
     95 H95        23.0407   -0.7471   -3.0299 H         1 UNK         0.0784 
     96 H96        23.2729   -3.0749   -3.9102 H         1 UNK         0.0793 
     97 H97        24.0505   -2.9589   -2.3457 H         1 UNK         0.0793 
     98 H98        25.0271   -2.9710   -3.8090 H         1 UNK         0.0793 
     99 H99        25.9224   -1.0715   -2.5433 H         1 UNK         0.3024 
    100 H100       26.7723    1.9467   -1.9054 H         1 UNK         0.1171 
    101 H101       27.0260    2.0193    0.5879 H         1 UNK         0.0786 
    102 H102       25.4290    2.5294    0.0697 H         1 UNK         0.0786 
    103 H103       25.6495    0.9298    0.7572 H         1 UNK         0.0786 
    104 H104       28.3152    0.3745   -1.7650 H         1 UNK         0.2977 
    105 H105       26.6691   -1.6113   -5.7026 H         1 UNK         0.3127 
    106 H106       29.4118   -1.0205   -6.2889 H         1 UNK         0.0770 
    107 H107       27.5022    0.1799   -4.2129 H         1 UNK         0.0814 
    108 H108       29.2430    0.4017   -4.2492 H         1 UNK         0.0814 
    109 H109       28.5808   -1.2019   -3.9763 H         1 UNK         0.0814 
    110 H110       26.3400    0.7440   -6.6607 H         1 UNK         0.2983 
    111 H111       27.4135    3.2199   -7.5515 H         1 UNK         0.0947 
    112 H112       25.0280    2.8757   -6.8416 H         1 UNK         0.0806 
    113 H113       24.7342    1.9309   -8.3013 H         1 UNK         0.0806 
    114 H114       25.1393    3.6348   -8.4231 H         1 UNK         0.0806 
    115 H115       26.5578    0.2502   -9.3723 H         1 UNK         0.3000 
    116 H116       27.2808    1.2769  -11.9591 H         1 UNK         0.0850 
    117 H117       27.1464   -1.1208  -12.6402 H         1 UNK         0.0810 
    118 H118       25.7458   -0.6480  -11.6900 H         1 UNK         0.0810 
    119 H119       27.0248   -1.6089  -10.9550 H         1 UNK         0.0810 
    120 H120       29.0505   -0.7249   -9.5432 H         1 UNK         0.3040 
    121 H121       31.4402   -0.9907  -11.0758 H         1 UNK         0.0766 
    122 H122       30.9875   -1.2321   -8.0546 H         1 UNK         0.0812 
    123 H123       32.3952   -1.8258   -8.9233 H         1 UNK         0.0812 
    124 H124       30.8166   -2.5335   -9.2322 H         1 UNK         0.0812 
    125 H125       30.3817    1.5029   -8.8270 H         1 UNK         0.3205 
    126 H126       31.0741    3.4872   -8.2338 H         1 UNK         0.0754 
    127 H127       32.6686    4.8236   -9.5358 H         1 UNK         0.0769 
    128 H128       31.6137    3.9559  -10.6391 H         1 UNK         0.0769 
    129 H129       33.2659    3.3995  -10.3720 H         1 UNK         0.0769 
    130 H130       31.9148    1.1612   -6.8757 H         1 UNK         0.2981 
    131 H131       34.6206    1.6486   -5.8794 H         1 UNK         0.0541 
    132 H132       34.9250    1.7071   -3.3680 H         1 UNK         0.3459 
    133 H133       33.9043    2.8659   -2.5579 H         1 UNK         0.3459 
    134 H134       34.2157   -0.3216   -4.4067 H         1 UNK         0.0612 
    135 H135       34.0231   -0.6652   -6.1008 H         1 UNK         0.0612 
    136 H136       32.8073   -2.5790   -3.6003 H         1 UNK         0.0624 
    137 H137       33.1042   -2.8797   -5.2969 H         1 UNK         0.0624 
@<TRIPOS>BOND
     1    1    2 1    
     2    1   72 1    
     3    1   73 1    
     4    1   74 1    
     5    2    3 2    
     6    2    4 am   BACKBONE|DICT|INTERRES
     7    4    5 1    
     8    4   75 1    
     9    5    6 1    
    10    5   35 1    
    11    5   76 1    
    12    6    7 1    
    13    6   77 1    
    14    6   78 1    
    15    7    8 1    
    16    8    9 1    
    17    8   79 1    
    18    8   80 1    
    19    9   10 ar   
    20    9   14 ar   
    21   10   11 ar   
    22   10   81 1    
    23   11   12 ar   
    24   11   71 1    
    25   12   13 ar   
    26   12   82 1    
    27   13   14 ar   
    28   13   15 1    
    29   14   83 1    
    30   15   16 1    
    31   15   84 1    
    32   15   85 1    
    33   16   17 1    
    34   17   18 1    
    35   17   86 1    
    36   17   87 1    
    37   18   19 1    
    38   18   37 1    
    39   18   88 1    
    40   19   20 am   BACKBONE|DICT|INTERRES
    41   19   89 1    
    42   20   21 2    
    43   20   22 1    
    44   22   23 1    
    45   22   24 1    
    46   22   90 1    
    47   23   91 1    
    48   23   92 1    
    49   23   93 1    
    50   24   25 am   BACKBONE|DICT|INTERRES
    51   24   94 1    
    52   25   26 2    
    53   25   27 1    
    54   27   28 1    
    55   27   29 1    
    56   27   95 1    
    57   28   96 1    
    58   28   97 1    
    59   28   98 1    
    60   29   30 am   BACKBONE|DICT|INTERRES
    61   29   99 1    
    62   30   31 2    
    63   30   32 1    
    64   32   33 1    
    65   32   34 1    
    66   32  100 1    
    67   33  101 1    
    68   33  102 1    
    69   33  103 1    
    70   34   35 am   BACKBONE|DICT|INTERRES
    71   34  104 1    
    72   35   36 2    
    73   37   38 2    
    74   37   39 am   BACKBONE|DICT|INTERRES
    75   39   40 1    
    76   39  105 1    
    77   40   41 1    
    78   40   42 1    
    79   40  106 1    
    80   41  107 1    
    81   41  108 1    
    82   41  109 1    
    83   42   43 2    
    84   42   44 am   BACKBONE|DICT|INTERRES
    85   44   45 1    
    86   44  110 1    
    87   45   46 1    
    88   45   47 1    
    89   45  111 1    
    90   46  112 1    
    91   46  113 1    
    92   46  114 1    
    93   47   48 2    
    94   47   49 am   BACKBONE|DICT|INTERRES
    95   49   50 1    
    96   49  115 1    
    97   50   51 1    
    98   50   52 1    
    99   50  116 1    
   100   51  117 1    
   101   51  118 1    
   102   51  119 1    
   103   52   53 2    
   104   52   54 am   BACKBONE|DICT|INTERRES
   105   54   55 1    
   106   54  120 1    
   107   55   56 1    
   108   55   57 1    
   109   55  121 1    
   110   56  122 1    
   111   56  123 1    
   112   56  124 1    
   113   57   58 2    
   114   57   59 am   BACKBONE|DICT|INTERRES
   115   59   60 1    
   116   59  125 1    
   117   60   61 1    
   118   60   62 1    
   119   60  126 1    
   120   61  127 1    
   121   61  128 1    
   122   61  129 1    
   123   62   63 2    
   124   62   64 am   BACKBONE|DICT|INTERRES
   125   64   65 1    
   126   64  130 1    
   127   65   66 1    
   128   65   69 1    
   129   65  131 1    
   130   66   67 am   BACKBONE|DICT|INTERRES
   131   66   68 2    
   132   67  132 1    
   133   67  133 1    
   134   69   70 1    
   135   69  134 1    
   136   69  135 1    
   137   70   71 1    
   138   71  136 1    
   139   71  137 1    
@<TRIPOS>SUBSTRUCTURE
     1 UNK         1 GROUP             0       ****    0 ROOT    
