@<TRIPOS>MOLECULE
3R137
137   139    1
SMALL
USER_CHARGES


@<TRIPOS>ATOM
      1 CA         33.7583   -0.0809   -0.2526 C.3       0 UNK        -0.2020 
      2 C          32.7864   -1.2442   -0.3799 C.2       0 UNK         0.4855 
      3 O          33.2080   -2.3689   -0.6513 O.2       0 UNK        -0.5197 
      4 N          31.4902   -0.9830   -0.1894 N.am      1 UNK        -0.4892 
      5 CA         30.4043   -1.9399   -0.3646 C.3       1 UNK         0.0835 
      6 C6         30.2642   -2.8780    0.8615 C.3       12 UNK        -0.0855 
      7 S7         29.1682   -4.3113    0.5917 S.3       12 UNK        -0.2931 
      8 C8         30.2314   -5.4283   -0.3775 C.3       12 UNK         0.0378 
      9 C9         29.9878   -5.2803   -1.8733 C.ar      12 UNK        -0.0802 
     10 C10        30.9465   -4.6862   -2.7017 C.ar      12 UNK        -0.0944 
     11 C11        30.7296   -4.5806   -4.0794 C.ar      12 UNK        -0.0787 
     12 C12        29.5608   -5.1178   -4.6279 C.ar      12 UNK        -0.0862 
     13 C13        28.5820   -5.6919   -3.8104 C.ar      12 UNK        -0.0733 
     14 C14        28.8031   -5.7688   -2.4330 C.ar      12 UNK        -0.0832 
     15 C15        27.2966   -6.2474   -4.4125 C.3       12 UNK         0.0240 
     16 S16        26.0737   -4.9383   -4.7548 S.3       12 UNK        -0.2522 
     17 C17        26.8226   -4.1600   -6.2205 C.3       12 UNK        -0.0967 
     18 CA         25.8128   -3.3813   -7.0926 C.3       5 UNK         0.0660 
     19 N          25.2659   -2.2043   -6.4079 N.am      5 UNK        -0.4015 
     20 C          24.2404   -1.4753   -6.8787 C.2       4 UNK         0.4946 
     21 O          23.5848   -1.7892   -7.8729 O.2       4 UNK        -0.5353 
     22 CA         23.8814   -0.1639   -6.1537 C.3       4 UNK         0.0277 
     23 CB         22.6621   -0.3758   -5.2414 C.3       4 UNK        -0.1981 
     24 N          24.9693    0.4199   -5.3670 N.am      4 UNK        -0.4209 
     25 C          26.1564    0.8277   -5.8380 C.2       3 UNK         0.4942 
     26 O          26.4785    0.7871   -7.0271 O.2       3 UNK        -0.5208 
     27 CA         27.1804    1.3032   -4.7895 C.3       3 UNK         0.0250 
     28 CB         27.0572    2.8201   -4.5727 C.3       3 UNK        -0.1990 
     29 N          27.0772    0.6259   -3.4881 N.am      3 UNK        -0.4232 
     30 C          27.1082   -0.7002   -3.2939 C.2       2 UNK         0.4993 
     31 O          27.2259   -1.5219   -4.2040 O.2       2 UNK        -0.5286 
     32 CA         26.9425   -1.1937   -1.8532 C.3       2 UNK         0.0209 
     33 CB         25.8291   -2.2509   -1.7566 C.3       2 UNK        -0.1931 
     34 N          28.1988   -1.7862   -1.4101 N.am      2 UNK        -0.4546 
     35 C          29.1239   -1.1511   -0.6827 C.2       1 UNK         0.5154 
     36 O          28.9950    0.0022   -0.2597 O.2       1 UNK        -0.5181 
     37 C          26.4935   -2.9950   -8.4203 C.2       5 UNK         0.5014 
     38 O          26.3642   -3.7258   -9.4038 O.2       5 UNK        -0.5248 
     39 N          27.2207   -1.8698   -8.4143 N.am      6 UNK        -0.4434 
     40 CA         27.9491   -1.3585   -9.5723 C.3       6 UNK         0.0363 
     41 CB         29.1656   -0.5569   -9.0862 C.3       6 UNK        -0.1936 
     42 C          27.0705   -0.4851  -10.4768 C.2       6 UNK         0.5081 
     43 O          27.3361   -0.4164  -11.6765 O.2       6 UNK        -0.5248 
     44 N          26.0927    0.2211   -9.8864 N.am      7 UNK        -0.4718 
     45 CA         25.1777    1.2125  -10.4818 C.3       7 UNK         0.0273 
     46 CB         24.3439    0.6143  -11.6310 C.3       7 UNK        -0.1935 
     47 C          25.8751    2.5196  -10.9064 C.2       7 UNK         0.5018 
     48 O          25.3411    3.5998  -10.6570 O.2       7 UNK        -0.5186 
     49 N          27.0872    2.4032  -11.4633 N.am      8 UNK        -0.4240 
     50 CA         28.0501    3.4851  -11.6906 C.3       8 UNK         0.0235 
     51 CB         29.0636    3.0223  -12.7516 C.3       8 UNK        -0.2000 
     52 C          28.7746    3.9346  -10.4021 C.2       8 UNK         0.4941 
     53 O          29.5973    4.8480  -10.4664 O.2       8 UNK        -0.5273 
     54 N          28.4696    3.2832   -9.2683 N.am      9 UNK        -0.4262 
     55 CA         28.9494    3.5537   -7.9091 C.3       9 UNK         0.0264 
     56 CB         28.5503    4.9701   -7.4422 C.3       9 UNK        -0.1955 
     57 C          30.4387    3.2440   -7.6737 C.2       9 UNK         0.5031 
     58 O          31.0208    3.7705   -6.7246 O.2       9 UNK        -0.5390 
     59 N          31.0201    2.3438   -8.4809 N.am      10 UNK        -0.4204 
     60 CA         32.3924    1.8400   -8.3248 C.3       10 UNK         0.0237 
     61 CB         32.7420    0.9201   -9.5061 C.3       10 UNK        -0.1985 
     62 C          32.6425    1.1188   -6.9842 C.2       10 UNK         0.4970 
     63 O          33.7532    1.1954   -6.4584 O.2       10 UNK        -0.4914 
     64 N          31.6023    0.4666   -6.4479 N.am      11 UNK        -0.4285 
     65 CA         31.5753   -0.1135   -5.0958 C.3       11 UNK         0.1007 
     66 C          31.2844    0.9285   -3.9738 C.2       11 UNK         0.5703 
     67 N          31.0652    2.2068   -4.2605 N.am      11 UNK        -0.7361 
     68 O          31.2683    0.5713   -2.8020 O.2       11 UNK        -0.4986 
     69 C69        30.6049   -1.3235   -5.0079 C.3       12 UNK        -0.0947 
     70 S70        31.0691   -2.6868   -6.1275 S.3       12 UNK        -0.2240 
     71 C71        31.7739   -3.9166   -4.9738 C.3       12 UNK         0.0194 
     72 H72        34.2974    0.0589   -1.1892 H         1 UNK         0.0906 
     73 H73        34.4847   -0.2811    0.5346 H         1 UNK         0.0906 
     74 H74        33.2467    0.8519   -0.0157 H         1 UNK         0.0906 
     75 H75        31.1678   -0.0329   -0.0435 H         1 UNK         0.3140 
     76 H76        30.6388   -2.5260   -1.2505 H         1 UNK         0.1085 
     77 H77        29.8963   -2.3198    1.7245 H         1 UNK         0.0836 
     78 H78        31.2421   -3.2592    1.1595 H         1 UNK         0.0836 
     79 H79        31.2816   -5.2616   -0.1324 H         1 UNK         0.0731 
     80 H80        30.0141   -6.4566   -0.0845 H         1 UNK         0.0731 
     81 H81        31.8642   -4.3056   -2.2727 H         1 UNK         0.1312 
     82 H82        29.4101   -5.0717   -5.6966 H         1 UNK         0.1406 
     83 H83        28.0571   -6.2202   -1.7924 H         1 UNK         0.1631 
     84 H84        26.8456   -6.9692   -3.7301 H         1 UNK         0.0717 
     85 H85        27.5185   -6.7999   -5.3267 H         1 UNK         0.0717 
     86 H86        27.6292   -3.5019   -5.8916 H         1 UNK         0.0934 
     87 H87        27.2908   -4.9497   -6.8120 H         1 UNK         0.0934 
     88 H88        24.9811   -4.0470   -7.3337 H         1 UNK         0.0739 
     89 H89        25.7641   -1.9027   -5.5756 H         1 UNK         0.3093 
     90 H90        23.6125    0.5628   -6.9232 H         1 UNK         0.0818 
     91 H91        21.8193   -0.7810   -5.8036 H         1 UNK         0.0819 
     92 H92        22.8797   -1.0747   -4.4326 H         1 UNK         0.0819 
     93 H93        22.3292    0.5623   -4.7968 H         1 UNK         0.0819 
     94 H94        24.8127    0.4930   -4.3726 H         1 UNK         0.3041 
     95 H95        28.1721    1.0918   -5.1933 H         1 UNK         0.0784 
     96 H96        27.0085    3.3585   -5.5187 H         1 UNK         0.0793 
     97 H97        26.1543    3.0764   -4.0172 H         1 UNK         0.0793 
     98 H98        27.9133    3.2108   -4.0220 H         1 UNK         0.0793 
     99 H99        26.9981    1.2276   -2.6803 H         1 UNK         0.3024 
    100 H100       26.6668   -0.3550   -1.2095 H         1 UNK         0.1171 
    101 H101       26.0606   -3.1387   -2.3461 H         1 UNK         0.0786 
    102 H102       25.6766   -2.5693   -0.7252 H         1 UNK         0.0786 
    103 H103       24.8794   -1.8560   -2.1196 H         1 UNK         0.0786 
    104 H104       28.3878   -2.7239   -1.7384 H         1 UNK         0.2977 
    105 H105       27.2335   -1.3007   -7.5780 H         1 UNK         0.3127 
    106 H106       28.3133   -2.1958  -10.1720 H         1 UNK         0.0770 
    107 H107       29.7137   -0.1386   -9.9313 H         1 UNK         0.0814 
    108 H108       28.8705    0.2671   -8.4366 H         1 UNK         0.0814 
    109 H109       29.8582   -1.1928   -8.5350 H         1 UNK         0.0814 
    110 H110       26.0376    0.1587   -8.8738 H         1 UNK         0.2983 
    111 H111       24.4836    1.4798   -9.6828 H         1 UNK         0.0947 
    112 H112       24.9567    0.3573  -12.4953 H         1 UNK         0.0806 
    113 H113       23.5896    1.3247  -11.9717 H         1 UNK         0.0806 
    114 H114       23.8200   -0.2864  -11.3108 H         1 UNK         0.0806 
    115 H115       27.4004    1.4566  -11.6671 H         1 UNK         0.3000 
    116 H116       27.5127    4.3528  -12.0791 H         1 UNK         0.0850 
    117 H117       29.7766    3.8138  -12.9870 H         1 UNK         0.0810 
    118 H118       28.5660    2.7517  -13.6831 H         1 UNK         0.0810 
    119 H119       29.6356    2.1571  -12.4138 H         1 UNK         0.0810 
    120 H120       27.7721    2.5562   -9.3387 H         1 UNK         0.3040 
    121 H121       28.4161    2.8436   -7.2781 H         1 UNK         0.0766 
    122 H122       28.7609    5.1086   -6.3809 H         1 UNK         0.0812 
    123 H123       27.4846    5.1493   -7.5845 H         1 UNK         0.0812 
    124 H124       29.0966    5.7438   -7.9823 H         1 UNK         0.0812 
    125 H125       30.4888    1.9921   -9.2623 H         1 UNK         0.3205 
    126 H126       33.0598    2.7039   -8.3576 H         1 UNK         0.0754 
    127 H127       33.7827    0.5973   -9.4499 H         1 UNK         0.0769 
    128 H128       32.6154    1.4304  -10.4612 H         1 UNK         0.0769 
    129 H129       32.1267    0.0202   -9.5183 H         1 UNK         0.0769 
    130 H130       30.7317    0.4480   -6.9525 H         1 UNK         0.2981 
    131 H131       32.5745   -0.4937   -4.8754 H         1 UNK         0.0541 
    132 H132       30.8923    2.8422   -3.4991 H         1 UNK         0.3459 
    133 H133       31.1217    2.5705   -5.2055 H         1 UNK         0.3459 
    134 H134       29.5930   -1.0115   -5.2668 H         1 UNK         0.0612 
    135 H135       30.5491   -1.7111   -3.9890 H         1 UNK         0.0612 
    136 H136       32.5469   -3.4310   -4.3760 H         1 UNK         0.0624 
    137 H137       32.2737   -4.6916   -5.5558 H         1 UNK         0.0624 
@<TRIPOS>BOND
     1    1    2 1    
     2    1   72 1    
     3    1   73 1    
     4    1   74 1    
     5    2    3 2    
     6    2    4 am   BACKBONE|DICT|INTERRES
     7    4    5 1    
     8    4   75 1    
     9    5    6 1    
    10    5   35 1    
    11    5   76 1    
    12    6    7 1    
    13    6   77 1    
    14    6   78 1    
    15    7    8 1    
    16    8    9 1    
    17    8   79 1    
    18    8   80 1    
    19    9   10 ar   
    20    9   14 ar   
    21   10   11 ar   
    22   10   81 1    
    23   11   12 ar   
    24   11   71 1    
    25   12   13 ar   
    26   12   82 1    
    27   13   14 ar   
    28   13   15 1    
    29   14   83 1    
    30   15   16 1    
    31   15   84 1    
    32   15   85 1    
    33   16   17 1    
    34   17   18 1    
    35   17   86 1    
    36   17   87 1    
    37   18   19 1    
    38   18   37 1    
    39   18   88 1    
    40   19   20 am   BACKBONE|DICT|INTERRES
    41   19   89 1    
    42   20   21 2    
    43   20   22 1    
    44   22   23 1    
    45   22   24 1    
    46   22   90 1    
    47   23   91 1    
    48   23   92 1    
    49   23   93 1    
    50   24   25 am   BACKBONE|DICT|INTERRES
    51   24   94 1    
    52   25   26 2    
    53   25   27 1    
    54   27   28 1    
    55   27   29 1    
    56   27   95 1    
    57   28   96 1    
    58   28   97 1    
    59   28   98 1    
    60   29   30 am   BACKBONE|DICT|INTERRES
    61   29   99 1    
    62   30   31 2    
    63   30   32 1    
    64   32   33 1    
    65   32   34 1    
    66   32  100 1    
    67   33  101 1    
    68   33  102 1    
    69   33  103 1    
    70   34   35 am   BACKBONE|DICT|INTERRES
    71   34  104 1    
    72   35   36 2    
    73   37   38 2    
    74   37   39 am   BACKBONE|DICT|INTERRES
    75   39   40 1    
    76   39  105 1    
    77   40   41 1    
    78   40   42 1    
    79   40  106 1    
    80   41  107 1    
    81   41  108 1    
    82   41  109 1    
    83   42   43 2    
    84   42   44 am   BACKBONE|DICT|INTERRES
    85   44   45 1    
    86   44  110 1    
    87   45   46 1    
    88   45   47 1    
    89   45  111 1    
    90   46  112 1    
    91   46  113 1    
    92   46  114 1    
    93   47   48 2    
    94   47   49 am   BACKBONE|DICT|INTERRES
    95   49   50 1    
    96   49  115 1    
    97   50   51 1    
    98   50   52 1    
    99   50  116 1    
   100   51  117 1    
   101   51  118 1    
   102   51  119 1    
   103   52   53 2    
   104   52   54 am   BACKBONE|DICT|INTERRES
   105   54   55 1    
   106   54  120 1    
   107   55   56 1    
   108   55   57 1    
   109   55  121 1    
   110   56  122 1    
   111   56  123 1    
   112   56  124 1    
   113   57   58 2    
   114   57   59 am   BACKBONE|DICT|INTERRES
   115   59   60 1    
   116   59  125 1    
   117   60   61 1    
   118   60   62 1    
   119   60  126 1    
   120   61  127 1    
   121   61  128 1    
   122   61  129 1    
   123   62   63 2    
   124   62   64 am   BACKBONE|DICT|INTERRES
   125   64   65 1    
   126   64  130 1    
   127   65   66 1    
   128   65   69 1    
   129   65  131 1    
   130   66   67 am   BACKBONE|DICT|INTERRES
   131   66   68 2    
   132   67  132 1    
   133   67  133 1    
   134   69   70 1    
   135   69  134 1    
   136   69  135 1    
   137   70   71 1    
   138   71  136 1    
   139   71  137 1    
@<TRIPOS>SUBSTRUCTURE
     1 UNK         1 GROUP             0       ****    0 ROOT    
