@<TRIPOS>MOLECULE
3R137
137   139    1
SMALL
USER_CHARGES


@<TRIPOS>ATOM
      1 CA         24.2465   -4.9108   -5.8831 C.3       0 UNK        -0.2020 
      2 C          24.5879   -4.4779   -4.4661 C.2       0 UNK         0.4855 
      3 O          24.5333   -3.2875   -4.1637 O.2       0 UNK        -0.5197 
      4 N          24.9219   -5.4365   -3.5896 N.am      1 UNK        -0.4892 
      5 CA         25.3853   -5.2469   -2.1997 C.3       1 UNK         0.0835 
      6 C6         26.7675   -4.5382   -2.1051 C.3       12 UNK        -0.0855 
      7 S7         28.0617   -5.4067   -3.0603 S.3       12 UNK        -0.2931 
      8 C8         28.2589   -4.3040   -4.5001 C.3       12 UNK         0.0378 
      9 C9         29.5661   -3.5210   -4.4741 C.ar      12 UNK        -0.0802 
     10 C10        30.3935   -3.5246   -5.6014 C.ar      12 UNK        -0.0944 
     11 C11        31.5732   -2.7772   -5.6201 C.ar      12 UNK        -0.0787 
     12 C12        31.9309   -2.0273   -4.4973 C.ar      12 UNK        -0.0862 
     13 C13        31.1164   -2.0121   -3.3623 C.ar      12 UNK        -0.0733 
     14 C14        29.9374   -2.7666   -3.3539 C.ar      12 UNK        -0.0832 
     15 C15        31.5326   -1.1826   -2.1520 C.3       12 UNK         0.0240 
     16 S16        30.2560   -0.0093   -1.5867 S.3       12 UNK        -0.2522 
     17 C17        29.7992    0.8887   -3.1139 C.3       12 UNK        -0.0967 
     18 CA         28.3467    0.5443   -3.5530 C.3       5 UNK         0.0660 
     19 N          27.3506    0.7715   -2.5005 N.am      5 UNK        -0.4015 
     20 C          26.9827    1.9423   -1.9654 C.2       4 UNK         0.4946 
     21 O          27.4900    3.0270   -2.2605 O.2       4 UNK        -0.5353 
     22 CA         25.8324    1.8796   -0.9372 C.3       4 UNK         0.0277 
     23 CB         25.4915    3.2589   -0.3413 C.3       4 UNK        -0.1981 
     24 N          24.6143    1.2952   -1.5105 N.am      4 UNK        -0.4209 
     25 C          24.4234   -0.0078   -1.7535 C.2       3 UNK         0.4942 
     26 O          25.2618   -0.8761   -1.4943 O.2       3 UNK        -0.5208 
     27 CA         23.1119   -0.3843   -2.4568 C.3       3 UNK         0.0250 
     28 CB         23.2259   -0.1257   -3.9691 C.3       3 UNK        -0.1990 
     29 N          22.8098   -1.7981   -2.2374 N.am      3 UNK        -0.4232 
     30 C          22.1098   -2.2709   -1.1958 C.2       2 UNK         0.4993 
     31 O          21.5588   -1.5505   -0.3618 O.2       2 UNK        -0.5286 
     32 CA         21.9877   -3.8003   -1.0503 C.3       2 UNK         0.0209 
     33 CB         20.6410   -4.2881   -1.6098 C.3       2 UNK        -0.1931 
     34 N          23.0722   -4.5281   -1.7120 N.am      2 UNK        -0.4546 
     35 C          24.3367   -4.5862   -1.2698 C.2       1 UNK         0.5154 
     36 O          24.6808   -4.1538   -0.1683 O.2       1 UNK        -0.5181 
     37 C          27.8820    1.1837   -4.8827 C.2       5 UNK         0.5014 
     38 O          26.6754    1.1946   -5.1410 O.2       5 UNK        -0.5248 
     39 N          28.8162    1.6629   -5.7219 N.am      6 UNK        -0.4434 
     40 CA         28.5695    2.2993   -7.0274 C.3       6 UNK         0.0363 
     41 CB         27.8971    3.6757   -6.8389 C.3       6 UNK        -0.1936 
     42 C          27.8204    1.4068   -8.0443 C.2       6 UNK         0.5081 
     43 O          27.1092    1.9228   -8.9076 O.2       6 UNK        -0.5248 
     44 N          28.0058    0.0819   -7.9409 N.am      7 UNK        -0.4718 
     45 CA         27.4185   -0.9295   -8.8291 C.3       7 UNK         0.0273 
     46 CB         27.6015   -2.3154   -8.1871 C.3       7 UNK        -0.1935 
     47 C          27.9936   -0.9131  -10.2608 C.2       7 UNK         0.5018 
     48 O          27.3523   -1.4262  -11.1785 O.2       7 UNK        -0.5186 
     49 N          29.1797   -0.3212  -10.4221 N.am      8 UNK        -0.4240 
     50 CA         29.8954   -0.0790  -11.6680 C.3       8 UNK         0.0235 
     51 CB         30.7020   -1.3318  -12.0582 C.3       8 UNK        -0.2000 
     52 C          30.8119    1.1297  -11.4353 C.2       8 UNK         0.4941 
     53 O          30.9614    1.5673  -10.2908 O.2       8 UNK        -0.5273 
     54 N          31.4462    1.6317  -12.5036 N.am      9 UNK        -0.4262 
     55 CA         32.3667    2.7787  -12.4629 C.3       9 UNK         0.0264 
     56 CB         32.8257    3.1182  -13.8903 C.3       9 UNK        -0.1955 
     57 C          33.5845    2.5828  -11.5373 C.2       9 UNK         0.5031 
     58 O          34.0539    3.5515  -10.9388 O.2       9 UNK        -0.5390 
     59 N          34.0491    1.3325  -11.4090 N.am      10 UNK        -0.4204 
     60 CA         35.1160    0.9232  -10.4914 C.3       10 UNK         0.0237 
     61 CB         35.6635   -0.4398  -10.9478 C.3       10 UNK        -0.1985 
     62 C          34.6737    0.8520   -9.0157 C.2       10 UNK         0.4970 
     63 O          35.5383    0.7984   -8.1404 O.2       10 UNK        -0.4914 
     64 N          33.3594    0.8323   -8.7613 N.am      11 UNK        -0.4285 
     65 CA         32.7518    0.7061   -7.4286 C.3       11 UNK         0.1007 
     66 C          32.4622    2.0709   -6.7391 C.2       11 UNK         0.5703 
     67 N          32.8588    3.2050   -7.3035 N.am      11 UNK        -0.7361 
     68 O          31.8472    2.1008   -5.6748 O.2       11 UNK        -0.4986 
     69 C69        31.4737   -0.1709   -7.4727 C.3       12 UNK        -0.0947 
     70 S70        31.7145   -1.8152   -8.2257 S.3       12 UNK        -0.2240 
     71 C71        32.4556   -2.7633   -6.8594 C.3       12 UNK         0.0194 
     72 H72        23.2272   -4.6152   -6.1306 H         1 UNK         0.0906 
     73 H73        24.9215   -4.4313   -6.5916 H         1 UNK         0.0906 
     74 H74        24.3295   -5.9897   -6.0127 H         1 UNK         0.0906 
     75 H75        24.9260   -6.3980   -3.9031 H         1 UNK         0.3140 
     76 H76        25.5140   -6.2526   -1.7958 H         1 UNK         0.1085 
     77 H77        26.6906   -3.4956   -2.4198 H         1 UNK         0.0836 
     78 H78        27.1086   -4.5067   -1.0686 H         1 UNK         0.0836 
     79 H79        28.2030   -4.9208   -5.3985 H         1 UNK         0.0731 
     80 H80        27.4295   -3.6001   -4.5714 H         1 UNK         0.0731 
     81 H81        30.1149   -4.0955   -6.4768 H         1 UNK         0.1312 
     82 H82        32.8427   -1.4457   -4.5128 H         1 UNK         0.1406 
     83 H83        29.3029   -2.7563   -2.4781 H         1 UNK         0.1631 
     84 H84        32.4422   -0.6184   -2.3639 H         1 UNK         0.0717 
     85 H85        31.7764   -1.8573   -1.3304 H         1 UNK         0.0717 
     86 H86        29.9080    1.9596   -2.9336 H         1 UNK         0.0934 
     87 H87        30.5177    0.6356   -3.8937 H         1 UNK         0.0934 
     88 H88        28.3137   -0.5281   -3.7455 H         1 UNK         0.0739 
     89 H89        26.8152   -0.0439   -2.2141 H         1 UNK         0.3093 
     90 H90        26.1718    1.2417   -0.1179 H         1 UNK         0.0818 
     91 H91        24.7186    3.1816    0.4236 H         1 UNK         0.0819 
     92 H92        26.3670    3.7071    0.1308 H         1 UNK         0.0819 
     93 H93        25.1412    3.9543   -1.1051 H         1 UNK         0.0819 
     94 H94        23.8988    1.9490   -1.7953 H         1 UNK         0.3041 
     95 H95        22.3041    0.2320   -2.0560 H         1 UNK         0.0784 
     96 H96        22.3211   -0.4313   -4.4946 H         1 UNK         0.0793 
     97 H97        23.3798    0.9339   -4.1770 H         1 UNK         0.0793 
     98 H98        24.0670   -0.6635   -4.4093 H         1 UNK         0.0793 
     99 H99        23.3107   -2.4501   -2.8349 H         1 UNK         0.3024 
    100 H100       22.0202   -4.0281    0.0178 H         1 UNK         0.1171 
    101 H101       20.5530   -4.0929   -2.6793 H         1 UNK         0.0786 
    102 H102       19.8085   -3.7839   -1.1169 H         1 UNK         0.0786 
    103 H103       20.5090   -5.3585   -1.4504 H         1 UNK         0.0786 
    104 H104       22.8774   -4.9159   -2.6238 H         1 UNK         0.2977 
    105 H105       29.7897    1.6437   -5.4359 H         1 UNK         0.3127 
    106 H106       29.5503    2.4820   -7.4678 H         1 UNK         0.0770 
    107 H107       26.8794    3.5796   -6.4594 H         1 UNK         0.0814 
    108 H108       27.8422    4.2189   -7.7832 H         1 UNK         0.0814 
    109 H109       28.4578    4.2984   -6.1419 H         1 UNK         0.0814 
    110 H110       28.5862   -0.2610   -7.1901 H         1 UNK         0.2983 
    111 H111       26.3484   -0.7258   -8.9092 H         1 UNK         0.0947 
    112 H112       27.1441   -3.0931   -8.8003 H         1 UNK         0.0806 
    113 H113       27.1341   -2.3640   -7.2032 H         1 UNK         0.0806 
    114 H114       28.6558   -2.5700   -8.0723 H         1 UNK         0.0806 
    115 H115       29.6082    0.1290   -9.6236 H         1 UNK         0.3000 
    116 H116       29.1805    0.1709  -12.4546 H         1 UNK         0.0850 
    117 H117       31.4532   -1.5776  -11.3066 H         1 UNK         0.0810 
    118 H118       30.0530   -2.2001  -12.1738 H         1 UNK         0.0810 
    119 H119       31.2203   -1.1918  -13.0072 H         1 UNK         0.0810 
    120 H120       31.2755    1.2199  -13.4104 H         1 UNK         0.3040 
    121 H121       31.8046    3.6310  -12.0749 H         1 UNK         0.0766 
    122 H122       31.9798    3.3666  -14.5316 H         1 UNK         0.0812 
    123 H123       33.3656    2.2895  -14.3502 H         1 UNK         0.0812 
    124 H124       33.4929    3.9815  -13.8906 H         1 UNK         0.0812 
    125 H125       33.6049    0.6023  -11.9465 H         1 UNK         0.3205 
    126 H126       35.9242    1.6551  -10.5539 H         1 UNK         0.0754 
    127 H127       36.4902   -0.7619  -10.3128 H         1 UNK         0.0769 
    128 H128       36.0421   -0.3946  -11.9692 H         1 UNK         0.0769 
    129 H129       34.8989   -1.2170  -10.9051 H         1 UNK         0.0769 
    130 H130       32.6983    0.9563   -9.5195 H         1 UNK         0.2981 
    131 H131       33.4609    0.1997   -6.7720 H         1 UNK         0.0541 
    132 H132       32.6596    4.0791   -6.8441 H         1 UNK         0.3459 
    133 H133       33.3415    3.1962   -8.1885 H         1 UNK         0.3459 
    134 H134       30.7097    0.3372   -8.0547 H         1 UNK         0.0612 
    135 H135       31.0454   -0.2936   -6.4783 H         1 UNK         0.0612 
    136 H136       32.6252   -3.7876   -7.1938 H         1 UNK         0.0624 
    137 H137       33.4392   -2.3490   -6.6328 H         1 UNK         0.0624 
@<TRIPOS>BOND
     1    1    2 1    
     2    1   72 1    
     3    1   73 1    
     4    1   74 1    
     5    2    3 2    
     6    2    4 am   BACKBONE|DICT|INTERRES
     7    4    5 1    
     8    4   75 1    
     9    5    6 1    
    10    5   35 1    
    11    5   76 1    
    12    6    7 1    
    13    6   77 1    
    14    6   78 1    
    15    7    8 1    
    16    8    9 1    
    17    8   79 1    
    18    8   80 1    
    19    9   10 ar   
    20    9   14 ar   
    21   10   11 ar   
    22   10   81 1    
    23   11   12 ar   
    24   11   71 1    
    25   12   13 ar   
    26   12   82 1    
    27   13   14 ar   
    28   13   15 1    
    29   14   83 1    
    30   15   16 1    
    31   15   84 1    
    32   15   85 1    
    33   16   17 1    
    34   17   18 1    
    35   17   86 1    
    36   17   87 1    
    37   18   19 1    
    38   18   37 1    
    39   18   88 1    
    40   19   20 am   BACKBONE|DICT|INTERRES
    41   19   89 1    
    42   20   21 2    
    43   20   22 1    
    44   22   23 1    
    45   22   24 1    
    46   22   90 1    
    47   23   91 1    
    48   23   92 1    
    49   23   93 1    
    50   24   25 am   BACKBONE|DICT|INTERRES
    51   24   94 1    
    52   25   26 2    
    53   25   27 1    
    54   27   28 1    
    55   27   29 1    
    56   27   95 1    
    57   28   96 1    
    58   28   97 1    
    59   28   98 1    
    60   29   30 am   BACKBONE|DICT|INTERRES
    61   29   99 1    
    62   30   31 2    
    63   30   32 1    
    64   32   33 1    
    65   32   34 1    
    66   32  100 1    
    67   33  101 1    
    68   33  102 1    
    69   33  103 1    
    70   34   35 am   BACKBONE|DICT|INTERRES
    71   34  104 1    
    72   35   36 2    
    73   37   38 2    
    74   37   39 am   BACKBONE|DICT|INTERRES
    75   39   40 1    
    76   39  105 1    
    77   40   41 1    
    78   40   42 1    
    79   40  106 1    
    80   41  107 1    
    81   41  108 1    
    82   41  109 1    
    83   42   43 2    
    84   42   44 am   BACKBONE|DICT|INTERRES
    85   44   45 1    
    86   44  110 1    
    87   45   46 1    
    88   45   47 1    
    89   45  111 1    
    90   46  112 1    
    91   46  113 1    
    92   46  114 1    
    93   47   48 2    
    94   47   49 am   BACKBONE|DICT|INTERRES
    95   49   50 1    
    96   49  115 1    
    97   50   51 1    
    98   50   52 1    
    99   50  116 1    
   100   51  117 1    
   101   51  118 1    
   102   51  119 1    
   103   52   53 2    
   104   52   54 am   BACKBONE|DICT|INTERRES
   105   54   55 1    
   106   54  120 1    
   107   55   56 1    
   108   55   57 1    
   109   55  121 1    
   110   56  122 1    
   111   56  123 1    
   112   56  124 1    
   113   57   58 2    
   114   57   59 am   BACKBONE|DICT|INTERRES
   115   59   60 1    
   116   59  125 1    
   117   60   61 1    
   118   60   62 1    
   119   60  126 1    
   120   61  127 1    
   121   61  128 1    
   122   61  129 1    
   123   62   63 2    
   124   62   64 am   BACKBONE|DICT|INTERRES
   125   64   65 1    
   126   64  130 1    
   127   65   66 1    
   128   65   69 1    
   129   65  131 1    
   130   66   67 am   BACKBONE|DICT|INTERRES
   131   66   68 2    
   132   67  132 1    
   133   67  133 1    
   134   69   70 1    
   135   69  134 1    
   136   69  135 1    
   137   70   71 1    
   138   71  136 1    
   139   71  137 1    
@<TRIPOS>SUBSTRUCTURE
     1 UNK         1 GROUP             0       ****    0 ROOT    
