@<TRIPOS>MOLECULE
3R137
137   139    1
SMALL
USER_CHARGES


@<TRIPOS>ATOM
      1 CA         23.2728   -1.9515    0.2728 C.3       0 UNK        -0.2020 
      2 C          24.6489   -1.5572   -0.2406 C.2       0 UNK         0.4855 
      3 O          24.8657   -0.3952   -0.5877 O.2       0 UNK        -0.5197 
      4 N          25.5804   -2.5195   -0.2864 N.am      1 UNK        -0.4892 
      5 CA         26.9779   -2.3158   -0.6840 C.3       1 UNK         0.0835 
      6 C6         27.8433   -3.5731   -0.4138 C.3       12 UNK        -0.0855 
      7 S7         29.5791   -3.1344   -0.0547 S.3       12 UNK        -0.2931 
      8 C8         30.5086   -4.3476   -1.0467 C.3       12 UNK         0.0378 
      9 C9         30.5367   -4.0011   -2.5299 C.ar      12 UNK        -0.0802 
     10 C10        31.2844   -2.9093   -2.9814 C.ar      12 UNK        -0.0944 
     11 C11        31.3508   -2.6045   -4.3448 C.ar      12 UNK        -0.0787 
     12 C12        30.6786   -3.4186   -5.2609 C.ar      12 UNK        -0.0862 
     13 C13        29.9163   -4.5083   -4.8241 C.ar      12 UNK        -0.0733 
     14 C14        29.8492   -4.7915   -3.4557 C.ar      12 UNK        -0.0832 
     15 C15        29.1694   -5.3960   -5.8179 C.3       12 UNK         0.0240 
     16 S16        28.2344   -4.4623   -7.0771 S.3       12 UNK        -0.2522 
     17 C17        27.2113   -3.3615   -6.0427 C.3       12 UNK        -0.0967 
     18 CA         25.7226   -3.3029   -6.4614 C.3       5 UNK         0.0660 
     19 N          24.9219   -2.5861   -5.4689 N.am      5 UNK        -0.4015 
     20 C          23.5893   -2.4353   -5.4863 C.2       4 UNK         0.4946 
     21 O          22.8394   -2.9650   -6.3071 O.2       4 UNK        -0.5353 
     22 CA         22.9800   -1.5348   -4.4006 C.3       4 UNK         0.0277 
     23 CB         22.5765   -2.3711   -3.1780 C.3       4 UNK        -0.1981 
     24 N          23.8714   -0.4461   -3.9890 N.am      4 UNK        -0.4209 
     25 C          24.1932    0.5990   -4.7657 C.2       3 UNK         0.4942 
     26 O          23.7704    0.7693   -5.9101 O.2       3 UNK        -0.5208 
     27 CA         25.1962    1.6019   -4.1773 C.3       3 UNK         0.0250 
     28 CB         24.5521    2.4450   -3.0652 C.3       3 UNK        -0.1990 
     29 N          26.3978    0.9418   -3.6702 N.am      3 UNK        -0.4232 
     30 C          27.2892    0.2903   -4.4306 C.2       2 UNK         0.4993 
     31 O          27.2191    0.2142   -5.6602 O.2       2 UNK        -0.5286 
     32 CA         28.4466   -0.4014   -3.6900 C.3       2 UNK         0.0209 
     33 CB         29.6089    0.5808   -3.4798 C.3       2 UNK        -0.1931 
     34 N          28.0812   -0.9565   -2.3851 N.am      2 UNK        -0.4546 
     35 C          27.1088   -1.8446   -2.1459 C.2       1 UNK         0.5154 
     36 O          26.3441   -2.2828   -3.0091 O.2       1 UNK        -0.5181 
     37 C          25.5205   -2.7175   -7.8741 C.2       5 UNK         0.5014 
     38 O          24.9722   -3.4123   -8.7325 O.2       5 UNK        -0.5248 
     39 N          25.9363   -1.4588   -8.0832 N.am      6 UNK        -0.4434 
     40 CA         25.8168   -0.7575   -9.3644 C.3       6 UNK         0.0363 
     41 CB         26.6480   -1.4526  -10.4724 C.3       6 UNK        -0.1936 
     42 C          26.1751    0.7278   -9.2115 C.2       6 UNK         0.5081 
     43 O          27.0248    1.2249   -9.9522 O.2       6 UNK        -0.5248 
     44 N          25.5376    1.4186   -8.2528 N.am      7 UNK        -0.4718 
     45 CA         25.6245    2.8723   -8.0298 C.3       7 UNK         0.0273 
     46 CB         24.8564    3.6201   -9.1408 C.3       7 UNK        -0.1935 
     47 C          27.0699    3.3884   -7.8549 C.2       7 UNK         0.5018 
     48 O          27.4604    4.3503   -8.5176 O.2       7 UNK        -0.5186 
     49 N          27.8253    2.7010   -6.9862 N.am      8 UNK        -0.4240 
     50 CA         29.2575    2.8215   -6.6663 C.3       8 UNK         0.0235 
     51 CB         29.8444    4.2399   -6.8178 C.3       8 UNK        -0.2000 
     52 C          30.1136    1.7636   -7.3817 C.2       8 UNK         0.4941 
     53 O          31.2176    1.4803   -6.9146 O.2       8 UNK        -0.5273 
     54 N          29.5992    1.1858   -8.4797 N.am      9 UNK        -0.4262 
     55 CA         30.1071    0.0118   -9.2077 C.3       9 UNK         0.0264 
     56 CB         29.9245   -1.2487   -8.3404 C.3       9 UNK        -0.1955 
     57 C          31.5455    0.1164   -9.7558 C.2       9 UNK         0.5031 
     58 O          32.1162   -0.9057  -10.1406 O.2       9 UNK        -0.5390 
     59 N          32.1033    1.3350   -9.7857 N.am      10 UNK        -0.4204 
     60 CA         33.4804    1.6763  -10.1573 C.3       10 UNK         0.0237 
     61 CB         33.7220    1.4293  -11.6628 C.3       10 UNK        -0.1985 
     62 C          34.5512    1.0170   -9.2594 C.2       10 UNK         0.4970 
     63 O          35.6676    0.7837   -9.7280 O.2       10 UNK        -0.4914 
     64 N          34.2158    0.7470   -7.9877 N.am      11 UNK        -0.4285 
     65 CA         35.1718    0.2852   -6.9675 C.3       11 UNK         0.1007 
     66 C          36.2491    1.3599   -6.6458 C.2       11 UNK         0.5703 
     67 N          37.4708    0.9423   -6.3423 N.am      11 UNK        -0.7361 
     68 O          35.9781    2.5599   -6.6289 O.2       11 UNK        -0.4986 
     69 C69        34.4606   -0.1637   -5.6655 C.3       12 UNK        -0.0947 
     70 S70        33.5505   -1.7359   -5.8372 S.3       12 UNK        -0.2240 
     71 C71        32.0975   -1.3623   -4.8127 C.3       12 UNK         0.0194 
     72 H72        22.5097   -1.2813   -0.1215 H         1 UNK         0.0906 
     73 H73        23.0146   -2.9691   -0.0199 H         1 UNK         0.0906 
     74 H74        23.2466   -1.8875    1.3602 H         1 UNK         0.0906 
     75 H75        25.3299   -3.4623   -0.0243 H         1 UNK         0.3140 
     76 H76        27.3385   -1.5073   -0.0432 H         1 UNK         0.1085 
     77 H77        27.7828   -4.2865   -1.2385 H         1 UNK         0.0836 
     78 H78        27.4739   -4.1054    0.4643 H         1 UNK         0.0836 
     79 H79        30.0950   -5.3440   -0.8824 H         1 UNK         0.0731 
     80 H80        31.5343   -4.3839   -0.6769 H         1 UNK         0.0731 
     81 H81        31.8055   -2.2905   -2.2636 H         1 UNK         0.1312 
     82 H82        30.7376   -3.1972   -6.3165 H         1 UNK         0.1406 
     83 H83        29.2719   -5.6388   -3.1109 H         1 UNK         0.1631 
     84 H84        28.4743   -6.0569   -5.2977 H         1 UNK         0.0717 
     85 H85        29.8898   -6.0407   -6.3226 H         1 UNK         0.0717 
     86 H86        27.2741   -3.7067   -5.0101 H         1 UNK         0.0934 
     87 H87        27.6640   -2.3709   -6.0520 H         1 UNK         0.0934 
     88 H88        25.3447   -4.3274   -6.4779 H         1 UNK         0.0739 
     89 H89        25.4317   -2.2030   -4.6771 H         1 UNK         0.3093 
     90 H90        22.0758   -1.0863   -4.8181 H         1 UNK         0.0818 
     91 H91        21.8962   -3.1748   -3.4632 H         1 UNK         0.0819 
     92 H92        23.4427   -2.8327   -2.7027 H         1 UNK         0.0819 
     93 H93        22.0593   -1.7615   -2.4382 H         1 UNK         0.0819 
     94 H94        24.2981   -0.5200   -3.0747 H         1 UNK         0.3041 
     95 H95        25.5027    2.2799   -4.9740 H         1 UNK         0.0784 
     96 H96        23.6551    2.9489   -3.4279 H         1 UNK         0.0793 
     97 H97        24.2607    1.8371   -2.2077 H         1 UNK         0.0793 
     98 H98        25.2342    3.2177   -2.7098 H         1 UNK         0.0793 
     99 H99        26.5263    0.9318   -2.6680 H         1 UNK         0.3024 
    100 H100       28.7934   -1.2296   -4.3097 H         1 UNK         0.1171 
    101 H101       30.4029    0.1383   -2.8787 H         1 UNK         0.0786 
    102 H102       30.0552    0.8649   -4.4300 H         1 UNK         0.0786 
    103 H103       29.2867    1.4948   -2.9790 H         1 UNK         0.0786 
    104 H104       28.6676   -0.6813   -1.6100 H         1 UNK         0.2977 
    105 H105       26.3516   -0.9339   -7.3190 H         1 UNK         0.3127 
    106 H106       24.7677   -0.7838   -9.6656 H         1 UNK         0.0770 
    107 H107       26.2438   -2.4298  -10.7329 H         1 UNK         0.0814 
    108 H108       26.6518   -0.8699  -11.3945 H         1 UNK         0.0814 
    109 H109       27.6832   -1.5967  -10.1686 H         1 UNK         0.0814 
    110 H110       24.8817    0.9324   -7.6476 H         1 UNK         0.2983 
    111 H111       25.1084    3.0788   -7.0922 H         1 UNK         0.0947 
    112 H112       24.8226    4.6919   -8.9410 H         1 UNK         0.0806 
    113 H113       23.8256    3.2734   -9.2123 H         1 UNK         0.0806 
    114 H114       25.3242    3.4855  -10.1168 H         1 UNK         0.0806 
    115 H115       27.3930    1.8833   -6.5600 H         1 UNK         0.3000 
    116 H116       29.3127    2.5892   -5.6046 H         1 UNK         0.0850 
    117 H117       30.8434    4.2901   -6.3827 H         1 UNK         0.0810 
    118 H118       29.2322    4.9839   -6.3082 H         1 UNK         0.0810 
    119 H119       29.9396    4.5337   -7.8634 H         1 UNK         0.0810 
    120 H120       28.7028    1.5245   -8.8172 H         1 UNK         0.3040 
    121 H121       29.4700   -0.0886  -10.0864 H         1 UNK         0.0766 
    122 H122       28.9120   -1.3199   -7.9448 H         1 UNK         0.0812 
    123 H123       30.6147   -1.2440   -7.4990 H         1 UNK         0.0812 
    124 H124       30.1133   -2.1575   -8.9129 H         1 UNK         0.0812 
    125 H125       31.5461    2.0958   -9.4229 H         1 UNK         0.3205 
    126 H126       33.5771    2.7493   -9.9853 H         1 UNK         0.0754 
    127 H127       34.6885    1.8263  -11.9758 H         1 UNK         0.0769 
    128 H128       32.9617    1.9179  -12.2722 H         1 UNK         0.0769 
    129 H129       33.7143    0.3662  -11.9053 H         1 UNK         0.0769 
    130 H130       33.2822    0.9677   -7.6627 H         1 UNK         0.2981 
    131 H131       35.6914   -0.5807   -7.3833 H         1 UNK         0.0541 
    132 H132       37.7011   -0.0393   -6.3408 H         1 UNK         0.3459 
    133 H133       38.1792    1.6231   -6.1163 H         1 UNK         0.3459 
    134 H134       35.1827   -0.3148   -4.8605 H         1 UNK         0.0612 
    135 H135       33.7865    0.6239   -5.3224 H         1 UNK         0.0612 
    136 H136       31.4224   -0.7300   -5.3865 H         1 UNK         0.0624 
    137 H137       32.4156   -0.7737   -3.9511 H         1 UNK         0.0624 
@<TRIPOS>BOND
     1    1    2 1    
     2    1   72 1    
     3    1   73 1    
     4    1   74 1    
     5    2    3 2    
     6    2    4 am   BACKBONE|DICT|INTERRES
     7    4    5 1    
     8    4   75 1    
     9    5    6 1    
    10    5   35 1    
    11    5   76 1    
    12    6    7 1    
    13    6   77 1    
    14    6   78 1    
    15    7    8 1    
    16    8    9 1    
    17    8   79 1    
    18    8   80 1    
    19    9   10 ar   
    20    9   14 ar   
    21   10   11 ar   
    22   10   81 1    
    23   11   12 ar   
    24   11   71 1    
    25   12   13 ar   
    26   12   82 1    
    27   13   14 ar   
    28   13   15 1    
    29   14   83 1    
    30   15   16 1    
    31   15   84 1    
    32   15   85 1    
    33   16   17 1    
    34   17   18 1    
    35   17   86 1    
    36   17   87 1    
    37   18   19 1    
    38   18   37 1    
    39   18   88 1    
    40   19   20 am   BACKBONE|DICT|INTERRES
    41   19   89 1    
    42   20   21 2    
    43   20   22 1    
    44   22   23 1    
    45   22   24 1    
    46   22   90 1    
    47   23   91 1    
    48   23   92 1    
    49   23   93 1    
    50   24   25 am   BACKBONE|DICT|INTERRES
    51   24   94 1    
    52   25   26 2    
    53   25   27 1    
    54   27   28 1    
    55   27   29 1    
    56   27   95 1    
    57   28   96 1    
    58   28   97 1    
    59   28   98 1    
    60   29   30 am   BACKBONE|DICT|INTERRES
    61   29   99 1    
    62   30   31 2    
    63   30   32 1    
    64   32   33 1    
    65   32   34 1    
    66   32  100 1    
    67   33  101 1    
    68   33  102 1    
    69   33  103 1    
    70   34   35 am   BACKBONE|DICT|INTERRES
    71   34  104 1    
    72   35   36 2    
    73   37   38 2    
    74   37   39 am   BACKBONE|DICT|INTERRES
    75   39   40 1    
    76   39  105 1    
    77   40   41 1    
    78   40   42 1    
    79   40  106 1    
    80   41  107 1    
    81   41  108 1    
    82   41  109 1    
    83   42   43 2    
    84   42   44 am   BACKBONE|DICT|INTERRES
    85   44   45 1    
    86   44  110 1    
    87   45   46 1    
    88   45   47 1    
    89   45  111 1    
    90   46  112 1    
    91   46  113 1    
    92   46  114 1    
    93   47   48 2    
    94   47   49 am   BACKBONE|DICT|INTERRES
    95   49   50 1    
    96   49  115 1    
    97   50   51 1    
    98   50   52 1    
    99   50  116 1    
   100   51  117 1    
   101   51  118 1    
   102   51  119 1    
   103   52   53 2    
   104   52   54 am   BACKBONE|DICT|INTERRES
   105   54   55 1    
   106   54  120 1    
   107   55   56 1    
   108   55   57 1    
   109   55  121 1    
   110   56  122 1    
   111   56  123 1    
   112   56  124 1    
   113   57   58 2    
   114   57   59 am   BACKBONE|DICT|INTERRES
   115   59   60 1    
   116   59  125 1    
   117   60   61 1    
   118   60   62 1    
   119   60  126 1    
   120   61  127 1    
   121   61  128 1    
   122   61  129 1    
   123   62   63 2    
   124   62   64 am   BACKBONE|DICT|INTERRES
   125   64   65 1    
   126   64  130 1    
   127   65   66 1    
   128   65   69 1    
   129   65  131 1    
   130   66   67 am   BACKBONE|DICT|INTERRES
   131   66   68 2    
   132   67  132 1    
   133   67  133 1    
   134   69   70 1    
   135   69  134 1    
   136   69  135 1    
   137   70   71 1    
   138   71  136 1    
   139   71  137 1    
@<TRIPOS>SUBSTRUCTURE
     1 UNK         1 GROUP             0       ****    0 ROOT    
