@<TRIPOS>MOLECULE
3R137
137   139    1
SMALL
USER_CHARGES


@<TRIPOS>ATOM
      1 CA         26.9052   -5.6529    1.4620 C.3       0 UNK        -0.2020 
      2 C          28.0186   -4.9718    0.6710 C.2       0 UNK         0.4855 
      3 O          28.9389   -5.6480    0.2175 O.2       0 UNK        -0.5197 
      4 N          27.9919   -3.6456    0.4766 N.am      1 UNK        -0.4892 
      5 CA         26.9533   -2.6967    0.9047 C.3       1 UNK         0.0835 
      6 C6         27.5111   -1.2480    0.9756 C.3       12 UNK        -0.0855 
      7 S7         27.9480   -0.5152   -0.6433 S.3       12 UNK        -0.2931 
      8 C8         29.7251   -0.8840   -0.7704 C.3       12 UNK         0.0378 
      9 C9         30.1172   -1.2191   -2.2027 C.ar      12 UNK        -0.0802 
     10 C10        30.9874   -0.3882   -2.9152 C.ar      12 UNK        -0.0944 
     11 C11        31.3794   -0.7234   -4.2151 C.ar      12 UNK        -0.0787 
     12 C12        30.8869   -1.8903   -4.8079 C.ar      12 UNK        -0.0862 
     13 C13        30.0183   -2.7286   -4.1052 C.ar      12 UNK        -0.0733 
     14 C14        29.6346   -2.3850   -2.8065 C.ar      12 UNK        -0.0832 
     15 C15        29.5276   -4.0308   -4.7185 C.3       12 UNK         0.0240 
     16 S16        27.8692   -3.8614   -5.4443 S.3       12 UNK        -0.2522 
     17 C17        28.2365   -3.3314   -7.1521 C.3       12 UNK        -0.0967 
     18 CA         27.5148   -2.0348   -7.5959 C.3       5 UNK         0.0660 
     19 N          26.0844   -2.0404   -7.2686 N.am      5 UNK        -0.4015 
     20 C          25.1747   -1.2465   -7.8477 C.2       4 UNK         0.4946 
     21 O          25.4459   -0.4126   -8.7111 O.2       4 UNK        -0.5353 
     22 CA         23.7217   -1.3886   -7.3673 C.3       4 UNK         0.0277 
     23 CB         23.1175   -2.7272   -7.8236 C.3       4 UNK        -0.1981 
     24 N          23.5637   -1.2405   -5.9178 N.am      4 UNK        -0.4209 
     25 C          23.8853   -0.1408   -5.2208 C.2       3 UNK         0.4942 
     26 O          24.4168    0.8514   -5.7131 O.2       3 UNK        -0.5208 
     27 CA         23.5603   -0.1321   -3.7187 C.3       3 UNK         0.0250 
     28 CB         22.1689    0.4744   -3.4766 C.3       3 UNK        -0.1990 
     29 N          23.6397   -1.4452   -3.0739 N.am      3 UNK        -0.4232 
     30 C          24.7684   -2.1544   -2.9516 C.2       2 UNK         0.4993 
     31 O          25.8430   -1.8280   -3.4596 O.2       2 UNK        -0.5286 
     32 CA         24.6832   -3.4446   -2.1240 C.3       2 UNK         0.0209 
     33 CB         24.8386   -4.6876   -3.0148 C.3       2 UNK        -0.1931 
     34 N          25.7383   -3.4341   -1.1144 N.am      2 UNK        -0.4546 
     35 C          25.6648   -2.7766    0.0518 C.2       1 UNK         0.5154 
     36 O          24.6336   -2.2449    0.4666 O.2       1 UNK        -0.5181 
     37 C          28.2320   -0.7552   -7.1220 C.2       5 UNK         0.5014 
     38 O          29.1794   -0.3194   -7.7828 O.2       5 UNK        -0.5248 
     39 N          27.7474   -0.1529   -6.0266 N.am      6 UNK        -0.4434 
     40 CA         28.1962    1.1497   -5.5401 C.3       6 UNK         0.0363 
     41 CB         27.6573    1.3882   -4.1220 C.3       6 UNK        -0.1936 
     42 C          27.7930    2.2870   -6.4944 C.2       6 UNK         0.5081 
     43 O          28.6483    3.0899   -6.8650 O.2       6 UNK        -0.5248 
     44 N          26.5178    2.3164   -6.9117 N.am      7 UNK        -0.4718 
     45 CA         25.9674    3.2911   -7.8613 C.3       7 UNK         0.0273 
     46 CB         24.4367    3.1643   -7.9108 C.3       7 UNK        -0.1935 
     47 C          26.5622    3.1642   -9.2726 C.2       7 UNK         0.5018 
     48 O          26.8091    4.1845   -9.9164 O.2       7 UNK        -0.5186 
     49 N          26.8168    1.9239   -9.7139 N.am      8 UNK        -0.4240 
     50 CA         27.5225    1.6115  -10.9610 C.3       8 UNK         0.0235 
     51 CB         27.3156    0.1265  -11.3008 C.3       8 UNK        -0.2000 
     52 C          29.0275    1.9402  -10.9192 C.2       8 UNK         0.4941 
     53 O          29.6581    1.9509  -11.9771 O.2       8 UNK        -0.5273 
     54 N          29.5713    2.1872   -9.7166 N.am      9 UNK        -0.4262 
     55 CA         30.9733    2.4766   -9.4082 C.3       9 UNK         0.0264 
     56 CB         31.4017    3.8353  -10.0019 C.3       9 UNK        -0.1955 
     57 C          31.9079    1.3197   -9.8011 C.2       9 UNK         0.5031 
     58 O          32.9615    1.5511  -10.3991 O.2       9 UNK        -0.5390 
     59 N          31.5220    0.0884   -9.4296 N.am      10 UNK        -0.4204 
     60 CA         32.2709   -1.1471   -9.7051 C.3       10 UNK         0.0237 
     61 CB         31.4382   -2.3533   -9.2459 C.3       10 UNK        -0.1985 
     62 C          33.6753   -1.1904   -9.0692 C.2       10 UNK         0.4970 
     63 O          34.5302   -1.9432   -9.5369 O.2       10 UNK        -0.4914 
     64 N          33.8844   -0.3700   -8.0339 N.am      11 UNK        -0.4285 
     65 CA         35.1745   -0.1051   -7.3865 C.3       11 UNK         0.1007 
     66 C          36.1614    0.7368   -8.2494 C.2       11 UNK         0.5703 
     67 N          35.7394    1.3614   -9.3442 N.am      11 UNK        -0.7361 
     68 O          37.3421    0.8183   -7.9190 O.2       11 UNK        -0.4986 
     69 C69        34.9699    0.5426   -5.9911 C.3       12 UNK        -0.0947 
     70 S70        34.0426   -0.5364   -4.8516 S.3       12 UNK        -0.2240 
     71 C71        32.3622    0.1526   -4.9721 C.3       12 UNK         0.0194 
     72 H72        25.9477   -5.5650    0.9502 H         1 UNK         0.0906 
     73 H73        27.1184   -6.7154    1.5787 H         1 UNK         0.0906 
     74 H74        26.8149   -5.2267    2.4604 H         1 UNK         0.0906 
     75 H75        28.7560   -3.2276   -0.0317 H         1 UNK         0.3140 
     76 H76        26.6564   -2.9620    1.9210 H         1 UNK         0.1085 
     77 H77        26.7719   -0.5938    1.4422 H         1 UNK         0.0836 
     78 H78        28.3786   -1.2117    1.6367 H         1 UNK         0.0836 
     79 H79        30.2888   -0.0264   -0.3997 H         1 UNK         0.0731 
     80 H80        29.9927   -1.7232   -0.1281 H         1 UNK         0.0731 
     81 H81        31.3754    0.5091   -2.4529 H         1 UNK         0.1312 
     82 H82        31.2007   -2.1553   -5.8072 H         1 UNK         0.1406 
     83 H83        28.9590   -3.0318   -2.2658 H         1 UNK         0.1631 
     84 H84        29.4854   -4.7982   -3.9440 H         1 UNK         0.0717 
     85 H85        30.2323   -4.4018   -5.4642 H         1 UNK         0.0717 
     86 H86        29.3133   -3.2437   -7.2969 H         1 UNK         0.0934 
     87 H87        27.9290   -4.1475   -7.8078 H         1 UNK         0.0934 
     88 H88        27.5814   -2.0121   -8.6855 H         1 UNK         0.0739 
     89 H89        25.7994   -2.6744   -6.5355 H         1 UNK         0.3093 
     90 H90        23.1495   -0.5857   -7.8375 H         1 UNK         0.0818 
     91 H91        22.0512   -2.7760   -7.6020 H         1 UNK         0.0819 
     92 H92        23.2270   -2.8571   -8.9013 H         1 UNK         0.0819 
     93 H93        23.5987   -3.5793   -7.3420 H         1 UNK         0.0819 
     94 H94        23.1342   -2.0076   -5.4221 H         1 UNK         0.3041 
     95 H95        24.2981    0.5124   -3.2356 H         1 UNK         0.0784 
     96 H96        21.3779   -0.1413   -3.9067 H         1 UNK         0.0793 
     97 H97        21.9652    0.5899   -2.4118 H         1 UNK         0.0793 
     98 H98        22.0919    1.4651   -3.9274 H         1 UNK         0.0793 
     99 H99        22.7973   -1.7812   -2.6290 H         1 UNK         0.3024 
    100 H100       23.7113   -3.4974   -1.6276 H         1 UNK         0.1171 
    101 H101       24.0742   -4.7107   -3.7924 H         1 UNK         0.0786 
    102 H102       24.7388   -5.6047   -2.4340 H         1 UNK         0.0786 
    103 H103       25.8092   -4.7113   -3.5099 H         1 UNK         0.0786 
    104 H104       26.6376   -3.7920   -1.3994 H         1 UNK         0.2977 
    105 H105       26.9900   -0.5944   -5.5222 H         1 UNK         0.3127 
    106 H106       29.2868    1.1284   -5.4854 H         1 UNK         0.0770 
    107 H107       26.5681    1.4196   -4.0981 H         1 UNK         0.0814 
    108 H108       28.0227    2.3333   -3.7191 H         1 UNK         0.0814 
    109 H109       27.9813    0.5986   -3.4441 H         1 UNK         0.0814 
    110 H110       25.8570    1.6393   -6.5327 H         1 UNK         0.2983 
    111 H111       26.2146    4.2885   -7.4913 H         1 UNK         0.0947 
    112 H112       24.0049    3.8866   -8.6049 H         1 UNK         0.0806 
    113 H113       23.9926    3.3494   -6.9326 H         1 UNK         0.0806 
    114 H114       24.1260    2.1702   -8.2355 H         1 UNK         0.0806 
    115 H115       26.4943    1.1328   -9.1603 H         1 UNK         0.3000 
    116 H116       27.0806    2.2108  -11.7597 H         1 UNK         0.0850 
    117 H117       27.7793   -0.1259  -12.2554 H         1 UNK         0.0810 
    118 H118       26.2567   -0.1202  -11.3804 H         1 UNK         0.0810 
    119 H119       27.7563   -0.5216  -10.5433 H         1 UNK         0.0810 
    120 H120       28.9602    2.1479   -8.9100 H         1 UNK         0.3040 
    121 H121       31.0331    2.5602   -8.3220 H         1 UNK         0.0766 
    122 H122       32.4050    4.1064   -9.6711 H         1 UNK         0.0812 
    123 H123       30.7298    4.6337   -9.6867 H         1 UNK         0.0812 
    124 H124       31.4138    3.8170  -11.0921 H         1 UNK         0.0812 
    125 H125       30.6462   -0.0134   -8.9166 H         1 UNK         0.3205 
    126 H126       32.4039   -1.2127  -10.7868 H         1 UNK         0.0754 
    127 H127       31.9314   -3.2915   -9.5040 H         1 UNK         0.0769 
    128 H128       30.4547   -2.3625   -9.7167 H         1 UNK         0.0769 
    129 H129       31.2959   -2.3456   -8.1660 H         1 UNK         0.0769 
    130 H130       33.1177    0.2098   -7.7351 H         1 UNK         0.2981 
    131 H131       35.6633   -1.0695   -7.2357 H         1 UNK         0.0541 
    132 H132       36.4000    1.8952   -9.8858 H         1 UNK         0.3459 
    133 H133       34.7700    1.3156   -9.6422 H         1 UNK         0.3459 
    134 H134       34.4654    1.5067   -6.0789 H         1 UNK         0.0612 
    135 H135       35.9335    0.7467   -5.5206 H         1 UNK         0.0612 
    136 H136       32.3567    1.1695   -4.5768 H         1 UNK         0.0624 
    137 H137       32.0551    0.2218   -6.0159 H         1 UNK         0.0624 
@<TRIPOS>BOND
     1    1    2 1    
     2    1   72 1    
     3    1   73 1    
     4    1   74 1    
     5    2    3 2    
     6    2    4 am   BACKBONE|DICT|INTERRES
     7    4    5 1    
     8    4   75 1    
     9    5    6 1    
    10    5   35 1    
    11    5   76 1    
    12    6    7 1    
    13    6   77 1    
    14    6   78 1    
    15    7    8 1    
    16    8    9 1    
    17    8   79 1    
    18    8   80 1    
    19    9   10 ar   
    20    9   14 ar   
    21   10   11 ar   
    22   10   81 1    
    23   11   12 ar   
    24   11   71 1    
    25   12   13 ar   
    26   12   82 1    
    27   13   14 ar   
    28   13   15 1    
    29   14   83 1    
    30   15   16 1    
    31   15   84 1    
    32   15   85 1    
    33   16   17 1    
    34   17   18 1    
    35   17   86 1    
    36   17   87 1    
    37   18   19 1    
    38   18   37 1    
    39   18   88 1    
    40   19   20 am   BACKBONE|DICT|INTERRES
    41   19   89 1    
    42   20   21 2    
    43   20   22 1    
    44   22   23 1    
    45   22   24 1    
    46   22   90 1    
    47   23   91 1    
    48   23   92 1    
    49   23   93 1    
    50   24   25 am   BACKBONE|DICT|INTERRES
    51   24   94 1    
    52   25   26 2    
    53   25   27 1    
    54   27   28 1    
    55   27   29 1    
    56   27   95 1    
    57   28   96 1    
    58   28   97 1    
    59   28   98 1    
    60   29   30 am   BACKBONE|DICT|INTERRES
    61   29   99 1    
    62   30   31 2    
    63   30   32 1    
    64   32   33 1    
    65   32   34 1    
    66   32  100 1    
    67   33  101 1    
    68   33  102 1    
    69   33  103 1    
    70   34   35 am   BACKBONE|DICT|INTERRES
    71   34  104 1    
    72   35   36 2    
    73   37   38 2    
    74   37   39 am   BACKBONE|DICT|INTERRES
    75   39   40 1    
    76   39  105 1    
    77   40   41 1    
    78   40   42 1    
    79   40  106 1    
    80   41  107 1    
    81   41  108 1    
    82   41  109 1    
    83   42   43 2    
    84   42   44 am   BACKBONE|DICT|INTERRES
    85   44   45 1    
    86   44  110 1    
    87   45   46 1    
    88   45   47 1    
    89   45  111 1    
    90   46  112 1    
    91   46  113 1    
    92   46  114 1    
    93   47   48 2    
    94   47   49 am   BACKBONE|DICT|INTERRES
    95   49   50 1    
    96   49  115 1    
    97   50   51 1    
    98   50   52 1    
    99   50  116 1    
   100   51  117 1    
   101   51  118 1    
   102   51  119 1    
   103   52   53 2    
   104   52   54 am   BACKBONE|DICT|INTERRES
   105   54   55 1    
   106   54  120 1    
   107   55   56 1    
   108   55   57 1    
   109   55  121 1    
   110   56  122 1    
   111   56  123 1    
   112   56  124 1    
   113   57   58 2    
   114   57   59 am   BACKBONE|DICT|INTERRES
   115   59   60 1    
   116   59  125 1    
   117   60   61 1    
   118   60   62 1    
   119   60  126 1    
   120   61  127 1    
   121   61  128 1    
   122   61  129 1    
   123   62   63 2    
   124   62   64 am   BACKBONE|DICT|INTERRES
   125   64   65 1    
   126   64  130 1    
   127   65   66 1    
   128   65   69 1    
   129   65  131 1    
   130   66   67 am   BACKBONE|DICT|INTERRES
   131   66   68 2    
   132   67  132 1    
   133   67  133 1    
   134   69   70 1    
   135   69  134 1    
   136   69  135 1    
   137   70   71 1    
   138   71  136 1    
   139   71  137 1    
@<TRIPOS>SUBSTRUCTURE
     1 UNK         1 GROUP             0       ****    0 ROOT    
