@<TRIPOS>MOLECULE
3R137
137   139    1
SMALL
USER_CHARGES


@<TRIPOS>ATOM
      1 CA         24.8309   -4.3527   -3.5430 C.3       0 UNK        -0.2020 
      2 C          25.7675   -3.3015   -2.9679 C.2       0 UNK         0.4855 
      3 O          26.0353   -2.3054   -3.6421 O.2       0 UNK        -0.5197 
      4 N          26.2387   -3.5235   -1.7304 N.am      1 UNK        -0.4892 
      5 CA         27.3115   -2.8145   -1.0063 C.3       1 UNK         0.0835 
      6 C6         28.7191   -3.3507   -1.3749 C.3       12 UNK        -0.0855 
      7 S7         28.8841   -5.1309   -0.9899 S.3       12 UNK        -0.2931 
      8 C8         30.6662   -5.4167   -1.2708 C.3       12 UNK         0.0378 
      9 C9         31.1309   -4.9630   -2.6499 C.ar      12 UNK        -0.0802 
     10 C10        32.2641   -4.1531   -2.7760 C.ar      12 UNK        -0.0944 
     11 C11        32.6608   -3.6808   -4.0303 C.ar      12 UNK        -0.0787 
     12 C12        31.9140   -4.0176   -5.1630 C.ar      12 UNK        -0.0862 
     13 C13        30.7749   -4.8184   -5.0480 C.ar      12 UNK        -0.0733 
     14 C14        30.4102   -5.3168   -3.7952 C.ar      12 UNK        -0.0832 
     15 C15        29.9011   -5.0968   -6.2628 C.3       12 UNK         0.0240 
     16 S16        28.2277   -4.3984   -6.0573 S.3       12 UNK        -0.2522 
     17 C17        28.5781   -2.6178   -5.8380 C.3       12 UNK        -0.0967 
     18 CA         27.7218   -1.7420   -6.7798 C.3       5 UNK         0.0660 
     19 N          26.2837   -1.9129   -6.5446 N.am      5 UNK        -0.4015 
     20 C          25.3432   -1.5892   -7.4416 C.2       4 UNK         0.4946 
     21 O          25.5933   -1.0852   -8.5358 O.2       4 UNK        -0.5353 
     22 CA         23.8740   -1.8401   -7.0590 C.3       4 UNK         0.0277 
     23 CB         23.5037   -3.3116   -7.3053 C.3       4 UNK        -0.1981 
     24 N          23.5074   -1.4676   -5.6884 N.am      4 UNK        -0.4209 
     25 C          23.7275   -0.2786   -5.1111 C.2       3 UNK         0.4942 
     26 O          24.3623    0.6319   -5.6406 O.2       3 UNK        -0.5208 
     27 CA         23.1616   -0.0534   -3.7057 C.3       3 UNK         0.0250 
     28 CB         22.1201   -1.0966   -3.2489 C.3       3 UNK        -0.1990 
     29 N          24.2784   -0.0280   -2.7685 N.am      3 UNK        -0.4232 
     30 C          24.4212    0.8413   -1.7604 C.2       2 UNK         0.4993 
     31 O          23.6139    1.7389   -1.5129 O.2       2 UNK        -0.5286 
     32 CA         25.6575    0.6584   -0.8633 C.3       2 UNK         0.0209 
     33 CB         25.4472    1.2150    0.5581 C.3       2 UNK        -0.1931 
     34 N          26.0154   -0.7589   -0.7761 N.am      2 UNK        -0.4546 
     35 C          27.2113   -1.2745   -1.0814 C.2       1 UNK         0.5154 
     36 O          28.1819   -0.5963   -1.4239 O.2       1 UNK        -0.5181 
     37 C          28.1377   -0.2601   -6.6973 C.2       5 UNK         0.5014 
     38 O          29.0224    0.1632   -7.4443 O.2       5 UNK        -0.5248 
     39 N          27.4746    0.5127   -5.8249 N.am      6 UNK        -0.4434 
     40 CA         27.6501    1.9612   -5.7165 C.3       6 UNK         0.0363 
     41 CB         27.0351    2.4689   -4.4023 C.3       6 UNK        -0.1936 
     42 C          27.0594    2.6912   -6.9335 C.2       6 UNK         0.5081 
     43 O          27.7122    3.5802   -7.4781 O.2       6 UNK        -0.5248 
     44 N          25.8656    2.2675   -7.3735 N.am      7 UNK        -0.4718 
     45 CA         25.1849    2.7568   -8.5769 C.3       7 UNK         0.0273 
     46 CB         23.7699    2.1610   -8.6434 C.3       7 UNK        -0.1935 
     47 C          25.9626    2.4610   -9.8713 C.2       7 UNK         0.5018 
     48 O          26.0061    3.3139  -10.7583 O.2       7 UNK        -0.5186 
     49 N          26.5959    1.2812   -9.9390 N.am      8 UNK        -0.4240 
     50 CA         27.5092    0.8785  -11.0131 C.3       8 UNK         0.0235 
     51 CB         27.7098   -0.6453  -10.9546 C.3       8 UNK        -0.2000 
     52 C          28.8746    1.5939  -10.9757 C.2       8 UNK         0.4941 
     53 O          29.6269    1.4727  -11.9435 O.2       8 UNK        -0.5273 
     54 N          29.1774    2.3024   -9.8758 N.am      9 UNK        -0.4262 
     55 CA         30.4333    2.9986   -9.5770 C.3       9 UNK         0.0264 
     56 CB         30.6493    4.1884  -10.5369 C.3       9 UNK        -0.1955 
     57 C          31.6367    2.0387   -9.5110 C.2       9 UNK         0.5031 
     58 O          32.6917    2.3262  -10.0824 O.2       9 UNK        -0.5390 
     59 N          31.4491    0.9073   -8.8185 N.am      10 UNK        -0.4204 
     60 CA         32.4805   -0.0983   -8.5622 C.3       10 UNK         0.0237 
     61 CB         31.7849   -1.4291   -8.2161 C.3       10 UNK        -0.1985 
     62 C          33.4503    0.3381   -7.4440 C.2       10 UNK         0.4970 
     63 O          33.3293    1.4386   -6.8985 O.2       10 UNK        -0.4914 
     64 N          34.3778   -0.5667   -7.1079 N.am      11 UNK        -0.4285 
     65 CA         35.4077   -0.4253   -6.0640 C.3       11 UNK         0.1007 
     66 C          36.5608    0.5402   -6.4745 C.2       11 UNK         0.5703 
     67 N          37.4369    0.9132   -5.5502 N.am      11 UNK        -0.7361 
     68 O          36.7032    0.9229   -7.6351 O.2       11 UNK        -0.4986 
     69 C69        34.8440   -0.1397   -4.6323 C.3       12 UNK        -0.0947 
     70 S70        33.3153   -1.0319   -4.1832 S.3       12 UNK        -0.2240 
     71 C71        33.8634   -2.7625   -4.1630 C.3       12 UNK         0.0194 
     72 H72        23.8899   -3.9021   -3.8514 H         1 UNK         0.0906 
     73 H73        24.6087   -5.1402   -2.8233 H         1 UNK         0.0906 
     74 H74        25.2891   -4.8147   -4.4172 H         1 UNK         0.0906 
     75 H75        25.9235   -4.3588   -1.2566 H         1 UNK         0.3140 
     76 H76        27.1568   -3.0445    0.0496 H         1 UNK         0.1085 
     77 H77        29.4969   -2.8151   -0.8269 H         1 UNK         0.0836 
     78 H78        28.9180   -3.1883   -2.4358 H         1 UNK         0.0836 
     79 H79        31.2261   -4.9046   -0.4866 H         1 UNK         0.0731 
     80 H80        30.8772   -6.4809   -1.1582 H         1 UNK         0.0731 
     81 H81        32.8252   -3.8683   -1.8963 H         1 UNK         0.1312 
     82 H82        32.2027   -3.6248   -6.1276 H         1 UNK         0.1406 
     83 H83        29.5230   -5.9290   -3.7042 H         1 UNK         0.1631 
     84 H84        29.8223   -6.1746   -6.4106 H         1 UNK         0.0717 
     85 H85        30.3482   -4.6898   -7.1713 H         1 UNK         0.0717 
     86 H86        28.4080   -2.3546   -4.7927 H         1 UNK         0.0934 
     87 H87        29.6373   -2.4368   -6.0209 H         1 UNK         0.0934 
     88 H88        27.9315   -2.0660   -7.8017 H         1 UNK         0.0739 
     89 H89        26.0167   -2.2677   -5.6316 H         1 UNK         0.3093 
     90 H90        23.2641   -1.2250   -7.7235 H         1 UNK         0.0818 
     91 H91        23.7407   -3.6069   -8.3286 H         1 UNK         0.0819 
     92 H92        24.0474   -3.9830   -6.6397 H         1 UNK         0.0819 
     93 H93        22.4370   -3.4843   -7.1611 H         1 UNK         0.0819 
     94 H94        22.9718   -2.1472   -5.1699 H         1 UNK         0.3041 
     95 H95        22.6732    0.9231   -3.7346 H         1 UNK         0.0784 
     96 H96        21.3006   -1.1811   -3.9641 H         1 UNK         0.0793 
     97 H97        22.5559   -2.0857   -3.1118 H         1 UNK         0.0793 
     98 H98        21.6776   -0.8048   -2.2962 H         1 UNK         0.0793 
     99 H99        25.0120   -0.7106   -2.9387 H         1 UNK         0.3024 
    100 H100       26.4611    1.2277   -1.3356 H         1 UNK         0.1171 
    101 H101       25.2342    2.2846    0.5349 H         1 UNK         0.0786 
    102 H102       24.6139    0.7251    1.0631 H         1 UNK         0.0786 
    103 H103       26.3380    1.0788    1.1715 H         1 UNK         0.0786 
    104 H104       25.2661   -1.3951   -0.5386 H         1 UNK         0.2977 
    105 H105       26.7209    0.1026   -5.2910 H         1 UNK         0.3127 
    106 H106       28.7216    2.1721   -5.6895 H         1 UNK         0.0770 
    107 H107       25.9600    2.2946   -4.3573 H         1 UNK         0.0814 
    108 H108       27.1941    3.5421   -4.2901 H         1 UNK         0.0814 
    109 H109       27.4914    1.9820   -3.5404 H         1 UNK         0.0814 
    110 H110       25.3733    1.5628   -6.8255 H         1 UNK         0.2983 
    111 H111       25.0966    3.8416   -8.4874 H         1 UNK         0.0947 
    112 H112       23.7938    1.0736   -8.7194 H         1 UNK         0.0806 
    113 H113       23.2273    2.5381   -9.5112 H         1 UNK         0.0806 
    114 H114       23.1887    2.4205   -7.7582 H         1 UNK         0.0806 
    115 H115       26.4265    0.5965   -9.2073 H         1 UNK         0.3000 
    116 H116       27.0409    1.1255  -11.9682 H         1 UNK         0.0850 
    117 H117       28.3519   -0.9893  -11.7665 H         1 UNK         0.0810 
    118 H118       26.7615   -1.1750  -11.0470 H         1 UNK         0.0810 
    119 H119       28.1763   -0.9518  -10.0178 H         1 UNK         0.0810 
    120 H120       28.4852    2.3427   -9.1375 H         1 UNK         0.3040 
    121 H121       30.3200    3.4071   -8.5717 H         1 UNK         0.0766 
    122 H122       29.7882    4.8567  -10.5381 H         1 UNK         0.0812 
    123 H123       30.8205    3.8585  -11.5619 H         1 UNK         0.0812 
    124 H124       31.5166    4.7778  -10.2370 H         1 UNK         0.0812 
    125 H125       30.5523    0.7534   -8.3597 H         1 UNK         0.3205 
    126 H126       33.0612   -0.2372   -9.4766 H         1 UNK         0.0754 
    127 H127       32.4883   -2.2618   -8.2205 H         1 UNK         0.0769 
    128 H128       31.0016   -1.6706   -8.9353 H         1 UNK         0.0769 
    129 H129       31.3290   -1.3889   -7.2267 H         1 UNK         0.0769 
    130 H130       34.4230   -1.4239   -7.6376 H         1 UNK         0.2981 
    131 H131       35.8851   -1.4044   -6.0283 H         1 UNK         0.0541 
    132 H132       38.1946    1.5235   -5.8142 H         1 UNK         0.3459 
    133 H133       37.3561    0.5996   -4.5960 H         1 UNK         0.3459 
    134 H134       34.6274    0.9245   -4.5235 H         1 UNK         0.0612 
    135 H135       35.5961   -0.3710   -3.8767 H         1 UNK         0.0612 
    136 H136       34.5638   -2.9152   -3.3405 H         1 UNK         0.0624 
    137 H137       34.4001   -2.9964   -5.0828 H         1 UNK         0.0624 
@<TRIPOS>BOND
     1    1    2 1    
     2    1   72 1    
     3    1   73 1    
     4    1   74 1    
     5    2    3 2    
     6    2    4 am   BACKBONE|DICT|INTERRES
     7    4    5 1    
     8    4   75 1    
     9    5    6 1    
    10    5   35 1    
    11    5   76 1    
    12    6    7 1    
    13    6   77 1    
    14    6   78 1    
    15    7    8 1    
    16    8    9 1    
    17    8   79 1    
    18    8   80 1    
    19    9   10 ar   
    20    9   14 ar   
    21   10   11 ar   
    22   10   81 1    
    23   11   12 ar   
    24   11   71 1    
    25   12   13 ar   
    26   12   82 1    
    27   13   14 ar   
    28   13   15 1    
    29   14   83 1    
    30   15   16 1    
    31   15   84 1    
    32   15   85 1    
    33   16   17 1    
    34   17   18 1    
    35   17   86 1    
    36   17   87 1    
    37   18   19 1    
    38   18   37 1    
    39   18   88 1    
    40   19   20 am   BACKBONE|DICT|INTERRES
    41   19   89 1    
    42   20   21 2    
    43   20   22 1    
    44   22   23 1    
    45   22   24 1    
    46   22   90 1    
    47   23   91 1    
    48   23   92 1    
    49   23   93 1    
    50   24   25 am   BACKBONE|DICT|INTERRES
    51   24   94 1    
    52   25   26 2    
    53   25   27 1    
    54   27   28 1    
    55   27   29 1    
    56   27   95 1    
    57   28   96 1    
    58   28   97 1    
    59   28   98 1    
    60   29   30 am   BACKBONE|DICT|INTERRES
    61   29   99 1    
    62   30   31 2    
    63   30   32 1    
    64   32   33 1    
    65   32   34 1    
    66   32  100 1    
    67   33  101 1    
    68   33  102 1    
    69   33  103 1    
    70   34   35 am   BACKBONE|DICT|INTERRES
    71   34  104 1    
    72   35   36 2    
    73   37   38 2    
    74   37   39 am   BACKBONE|DICT|INTERRES
    75   39   40 1    
    76   39  105 1    
    77   40   41 1    
    78   40   42 1    
    79   40  106 1    
    80   41  107 1    
    81   41  108 1    
    82   41  109 1    
    83   42   43 2    
    84   42   44 am   BACKBONE|DICT|INTERRES
    85   44   45 1    
    86   44  110 1    
    87   45   46 1    
    88   45   47 1    
    89   45  111 1    
    90   46  112 1    
    91   46  113 1    
    92   46  114 1    
    93   47   48 2    
    94   47   49 am   BACKBONE|DICT|INTERRES
    95   49   50 1    
    96   49  115 1    
    97   50   51 1    
    98   50   52 1    
    99   50  116 1    
   100   51  117 1    
   101   51  118 1    
   102   51  119 1    
   103   52   53 2    
   104   52   54 am   BACKBONE|DICT|INTERRES
   105   54   55 1    
   106   54  120 1    
   107   55   56 1    
   108   55   57 1    
   109   55  121 1    
   110   56  122 1    
   111   56  123 1    
   112   56  124 1    
   113   57   58 2    
   114   57   59 am   BACKBONE|DICT|INTERRES
   115   59   60 1    
   116   59  125 1    
   117   60   61 1    
   118   60   62 1    
   119   60  126 1    
   120   61  127 1    
   121   61  128 1    
   122   61  129 1    
   123   62   63 2    
   124   62   64 am   BACKBONE|DICT|INTERRES
   125   64   65 1    
   126   64  130 1    
   127   65   66 1    
   128   65   69 1    
   129   65  131 1    
   130   66   67 am   BACKBONE|DICT|INTERRES
   131   66   68 2    
   132   67  132 1    
   133   67  133 1    
   134   69   70 1    
   135   69  134 1    
   136   69  135 1    
   137   70   71 1    
   138   71  136 1    
   139   71  137 1    
@<TRIPOS>SUBSTRUCTURE
     1 UNK         1 GROUP             0       ****    0 ROOT    
