@<TRIPOS>MOLECULE
3R137
137   139    1
SMALL
USER_CHARGES


@<TRIPOS>ATOM
      1 CA         29.0933    1.2698    1.9456 C.3       0 UNK        -0.2020 
      2 C          28.7716   -0.2219    1.9849 C.2       0 UNK         0.4855 
      3 O          28.4310   -0.7386    3.0472 O.2       0 UNK        -0.5197 
      4 N          28.8673   -0.9590    0.8690 N.am      1 UNK        -0.4892 
      5 CA         29.2097   -0.4949   -0.4843 C.3       1 UNK         0.0835 
      6 C6         29.7086   -1.6676   -1.3656 C.3       12 UNK        -0.0855 
      7 S7         28.4917   -3.0213   -1.5439 S.3       12 UNK        -0.2931 
      8 C8         29.5694   -4.4146   -1.9998 C.3       12 UNK         0.0378 
      9 C9         29.8493   -4.4511   -3.4955 C.ar      12 UNK        -0.0802 
     10 C10        31.0267   -3.9055   -4.0193 C.ar      12 UNK        -0.0944 
     11 C11        31.3002   -3.9937   -5.3891 C.ar      12 UNK        -0.0787 
     12 C12        30.3757   -4.6138   -6.2384 C.ar      12 UNK        -0.0862 
     13 C13        29.1999   -5.1702   -5.7238 C.ar      12 UNK        -0.0733 
     14 C14        28.9412   -5.0783   -4.3533 C.ar      12 UNK        -0.0832 
     15 C15        28.2490   -5.9529   -6.6201 C.3       12 UNK         0.0240 
     16 S16        26.6385   -5.1265   -6.8286 S.3       12 UNK        -0.2522 
     17 C17        26.7232   -4.4917   -8.5434 C.3       12 UNK        -0.0967 
     18 CA         26.4218   -2.9784   -8.6744 C.3       5 UNK         0.0660 
     19 N          25.1765   -2.5939   -8.0056 N.am      5 UNK        -0.4015 
     20 C          24.5703   -1.4056   -8.1324 C.2       4 UNK         0.4946 
     21 O          24.9513   -0.5170   -8.8949 O.2       4 UNK        -0.5353 
     22 CA         23.3670   -1.1490   -7.2079 C.3       4 UNK         0.0277 
     23 CB         22.0837   -1.7463   -7.8069 C.3       4 UNK        -0.1981 
     24 N          23.5674   -1.6616   -5.8454 N.am      4 UNK        -0.4209 
     25 C          24.5310   -1.2331   -5.0179 C.2       3 UNK         0.4942 
     26 O          25.3492   -0.3653   -5.3262 O.2       3 UNK        -0.5208 
     27 CA         24.6328   -1.9343   -3.6505 C.3       3 UNK         0.0250 
     28 CB         25.4198   -3.2495   -3.7818 C.3       3 UNK        -0.1990 
     29 N          25.2813   -1.0993   -2.6341 N.am      3 UNK        -0.4232 
     30 C          24.7828    0.0469   -2.1482 C.2       2 UNK         0.4993 
     31 O          23.6814    0.4965   -2.4708 O.2       2 UNK        -0.5286 
     32 CA         25.6232    0.8145   -1.1085 C.3       2 UNK         0.0209 
     33 CB         24.7886    1.1416    0.1443 C.3       2 UNK        -0.1931 
     34 N          26.8262    0.0925   -0.6819 N.am      2 UNK        -0.4546 
     35 C          28.0618    0.2893   -1.1623 C.2       1 UNK         0.5154 
     36 O          28.3206    1.0725   -2.0751 O.2       1 UNK        -0.5181 
     37 C          27.6142   -2.1151   -8.2230 C.2       5 UNK         0.5014 
     38 O          28.4013   -1.6907   -9.0683 O.2       5 UNK        -0.5248 
     39 N          27.6985   -1.8367   -6.9147 N.am      6 UNK        -0.4434 
     40 CA         28.7132   -0.9743   -6.3144 C.3       6 UNK         0.0363 
     41 CB         28.6311   -1.0446   -4.7857 C.3       6 UNK        -0.1936 
     42 C          28.6052    0.4774   -6.7903 C.2       6 UNK         0.5081 
     43 O          29.6267    1.0789   -7.1166 O.2       6 UNK        -0.5248 
     44 N          27.3732    0.9983   -6.8554 N.am      7 UNK        -0.4718 
     45 CA         27.0587    2.3233   -7.3892 C.3       7 UNK         0.0273 
     46 CB         25.5802    2.6473   -7.1226 C.3       7 UNK        -0.1935 
     47 C          27.3915    2.4523   -8.8851 C.2       7 UNK         0.5018 
     48 O          27.9564    3.4697   -9.2875 O.2       7 UNK        -0.5186 
     49 N          27.0629    1.4168   -9.6721 N.am      8 UNK        -0.4240 
     50 CA         27.3601    1.3362  -11.1042 C.3       8 UNK         0.0235 
     51 CB         26.6001    0.1535  -11.7266 C.3       8 UNK        -0.2000 
     52 C          28.8659    1.2353  -11.4027 C.2       8 UNK         0.4941 
     53 O          29.3557    1.9510  -12.2774 O.2       8 UNK        -0.5273 
     54 N          29.5721    0.3567  -10.6776 N.am      9 UNK        -0.4262 
     55 CA         31.0125    0.1271  -10.8298 C.3       9 UNK         0.0264 
     56 CB         31.3557   -1.2637  -10.2743 C.3       9 UNK        -0.1955 
     57 C          31.8923    1.2041  -10.1672 C.2       9 UNK         0.5031 
     58 O          33.0816    1.2684  -10.4824 O.2       9 UNK        -0.5390 
     59 N          31.3085    2.0091   -9.2670 N.am      10 UNK        -0.4204 
     60 CA         31.9468    3.0208   -8.4165 C.3       10 UNK         0.0237 
     61 CB         32.5696    4.1581   -9.2556 C.3       10 UNK        -0.1985 
     62 C          32.9260    2.3874   -7.4087 C.2       10 UNK         0.4970 
     63 O          34.0632    2.8445   -7.2746 O.2       10 UNK        -0.4914 
     64 N          32.4595    1.3341   -6.7266 N.am      11 UNK        -0.4285 
     65 CA         33.1885    0.6217   -5.6668 C.3       11 UNK         0.1007 
     66 C          33.3653    1.4866   -4.3885 C.2       11 UNK         0.5703 
     67 N          34.4500    1.2899   -3.6534 N.am      11 UNK        -0.7361 
     68 O          32.5162    2.3019   -4.0366 O.2       11 UNK        -0.4986 
     69 C69        32.5181   -0.7341   -5.3223 C.3       12 UNK        -0.0947 
     70 S70        32.4954   -1.8711   -6.7465 S.3       12 UNK        -0.2240 
     71 C71        32.6298   -3.4974   -5.9446 C.3       12 UNK         0.0194 
     72 H72        28.4228    1.8031    1.2708 H         1 UNK         0.0906 
     73 H73        28.9772    1.7093    2.9378 H         1 UNK         0.0906 
     74 H74        30.1240    1.4375    1.6291 H         1 UNK         0.0906 
     75 H75        28.6602   -1.9472    0.9276 H         1 UNK         0.3140 
     76 H76        30.0424    0.2063   -0.3984 H         1 UNK         0.1085 
     77 H77        30.0094   -1.3155   -2.3518 H         1 UNK         0.0836 
     78 H78        30.6176   -2.0753   -0.9206 H         1 UNK         0.0836 
     79 H79        29.0787   -5.3423   -1.7014 H         1 UNK         0.0731 
     80 H80        30.5005   -4.3762   -1.4325 H         1 UNK         0.0731 
     81 H81        31.7417   -3.4367   -3.3573 H         1 UNK         0.1312 
     82 H82        30.5938   -4.6967   -7.2944 H         1 UNK         0.1406 
     83 H83        28.0380   -5.5164   -3.9503 H         1 UNK         0.1631 
     84 H84        28.0714   -6.9287   -6.1657 H         1 UNK         0.0717 
     85 H85        28.7063   -6.1618   -7.5877 H         1 UNK         0.0717 
     86 H86        27.6890   -4.7252   -8.9954 H         1 UNK         0.0934 
     87 H87        25.9928   -5.0517   -9.1296 H         1 UNK         0.0934 
     88 H88        26.2812   -2.7711   -9.7376 H         1 UNK         0.0739 
     89 H89        24.7986   -3.2673   -7.3553 H         1 UNK         0.3093 
     90 H90        23.2372   -0.0668   -7.1367 H         1 UNK         0.0818 
     91 H91        21.2090   -1.4861   -7.2104 H         1 UNK         0.0819 
     92 H92        21.9105   -1.3646   -8.8143 H         1 UNK         0.0819 
     93 H93        22.1332   -2.8337   -7.8748 H         1 UNK         0.0819 
     94 H94        22.9299   -2.3781   -5.5278 H         1 UNK         0.3041 
     95 H95        23.6226   -2.1601   -3.3027 H         1 UNK         0.0784 
     96 H96        26.4398   -3.0813   -4.1293 H         1 UNK         0.0793 
     97 H97        25.4785   -3.7735   -2.8275 H         1 UNK         0.0793 
     98 H98        24.9412   -3.9280   -4.4889 H         1 UNK         0.0793 
     99 H99        26.1979   -1.3878   -2.3248 H         1 UNK         0.3024 
    100 H100       25.9099    1.7587   -1.5784 H         1 UNK         0.1171 
    101 H101       25.3683    1.7153    0.8683 H         1 UNK         0.0786 
    102 H102       23.9130    1.7407   -0.1098 H         1 UNK         0.0786 
    103 H103       24.4326    0.2372    0.6397 H         1 UNK         0.0786 
    104 H104       26.7114   -0.5849    0.0594 H         1 UNK         0.2977 
    105 H105       26.9942   -2.2086   -6.2967 H         1 UNK         0.3127 
    106 H106       29.6869   -1.3538   -6.6239 H         1 UNK         0.0770 
    107 H107       28.8484   -2.0486   -4.4291 H         1 UNK         0.0814 
    108 H108       27.6531   -0.7579   -4.4057 H         1 UNK         0.0814 
    109 H109       29.3487   -0.3640   -4.3292 H         1 UNK         0.0814 
    110 H110       26.5966    0.4476   -6.4946 H         1 UNK         0.2983 
    111 H111       27.6709    3.0500   -6.8506 H         1 UNK         0.0947 
    112 H112       24.9154    1.9416   -7.6216 H         1 UNK         0.0806 
    113 H113       25.3281    3.6456   -7.4826 H         1 UNK         0.0806 
    114 H114       25.3550    2.6186   -6.0562 H         1 UNK         0.0806 
    115 H115       26.5449    0.6422   -9.2663 H         1 UNK         0.3000 
    116 H116       26.9932    2.2536  -11.5695 H         1 UNK         0.0850 
    117 H117       25.5232    0.2625  -11.5953 H         1 UNK         0.0810 
    118 H118       26.8950   -0.7966  -11.2806 H         1 UNK         0.0810 
    119 H119       26.7914    0.0857  -12.7984 H         1 UNK         0.0810 
    120 H120       29.0860   -0.2416  -10.0103 H         1 UNK         0.3040 
    121 H121       31.2516    0.1298  -11.8955 H         1 UNK         0.0766 
    122 H122       31.0875   -1.3454   -9.2211 H         1 UNK         0.0812 
    123 H123       32.4230   -1.4741  -10.3592 H         1 UNK         0.0812 
    124 H124       30.8242   -2.0482  -10.8135 H         1 UNK         0.0812 
    125 H125       30.3451    1.8059   -9.0266 H         1 UNK         0.3205 
    126 H126       31.1441    3.4594   -7.8214 H         1 UNK         0.0754 
    127 H127       33.4232    3.8152   -9.8407 H         1 UNK         0.0769 
    128 H128       31.8408    4.5859   -9.9439 H         1 UNK         0.0769 
    129 H129       32.9221    4.9658   -8.6130 H         1 UNK         0.0769 
    130 H130       31.4885    1.0669   -6.8659 H         1 UNK         0.2981 
    131 H131       34.1870    0.4105   -6.0556 H         1 UNK         0.0541 
    132 H132       34.5768    1.8322   -2.8133 H         1 UNK         0.3459 
    133 H133       35.1490    0.6178   -3.9255 H         1 UNK         0.3459 
    134 H134       33.0484   -1.2192   -4.5009 H         1 UNK         0.0612 
    135 H135       31.4964   -0.5833   -4.9787 H         1 UNK         0.0612 
    136 H136       32.9948   -4.2120   -6.6837 H         1 UNK         0.0624 
    137 H137       33.3902   -3.4646   -5.1631 H         1 UNK         0.0624 
@<TRIPOS>BOND
     1    1    2 1    
     2    1   72 1    
     3    1   73 1    
     4    1   74 1    
     5    2    3 2    
     6    2    4 am   BACKBONE|DICT|INTERRES
     7    4    5 1    
     8    4   75 1    
     9    5    6 1    
    10    5   35 1    
    11    5   76 1    
    12    6    7 1    
    13    6   77 1    
    14    6   78 1    
    15    7    8 1    
    16    8    9 1    
    17    8   79 1    
    18    8   80 1    
    19    9   10 ar   
    20    9   14 ar   
    21   10   11 ar   
    22   10   81 1    
    23   11   12 ar   
    24   11   71 1    
    25   12   13 ar   
    26   12   82 1    
    27   13   14 ar   
    28   13   15 1    
    29   14   83 1    
    30   15   16 1    
    31   15   84 1    
    32   15   85 1    
    33   16   17 1    
    34   17   18 1    
    35   17   86 1    
    36   17   87 1    
    37   18   19 1    
    38   18   37 1    
    39   18   88 1    
    40   19   20 am   BACKBONE|DICT|INTERRES
    41   19   89 1    
    42   20   21 2    
    43   20   22 1    
    44   22   23 1    
    45   22   24 1    
    46   22   90 1    
    47   23   91 1    
    48   23   92 1    
    49   23   93 1    
    50   24   25 am   BACKBONE|DICT|INTERRES
    51   24   94 1    
    52   25   26 2    
    53   25   27 1    
    54   27   28 1    
    55   27   29 1    
    56   27   95 1    
    57   28   96 1    
    58   28   97 1    
    59   28   98 1    
    60   29   30 am   BACKBONE|DICT|INTERRES
    61   29   99 1    
    62   30   31 2    
    63   30   32 1    
    64   32   33 1    
    65   32   34 1    
    66   32  100 1    
    67   33  101 1    
    68   33  102 1    
    69   33  103 1    
    70   34   35 am   BACKBONE|DICT|INTERRES
    71   34  104 1    
    72   35   36 2    
    73   37   38 2    
    74   37   39 am   BACKBONE|DICT|INTERRES
    75   39   40 1    
    76   39  105 1    
    77   40   41 1    
    78   40   42 1    
    79   40  106 1    
    80   41  107 1    
    81   41  108 1    
    82   41  109 1    
    83   42   43 2    
    84   42   44 am   BACKBONE|DICT|INTERRES
    85   44   45 1    
    86   44  110 1    
    87   45   46 1    
    88   45   47 1    
    89   45  111 1    
    90   46  112 1    
    91   46  113 1    
    92   46  114 1    
    93   47   48 2    
    94   47   49 am   BACKBONE|DICT|INTERRES
    95   49   50 1    
    96   49  115 1    
    97   50   51 1    
    98   50   52 1    
    99   50  116 1    
   100   51  117 1    
   101   51  118 1    
   102   51  119 1    
   103   52   53 2    
   104   52   54 am   BACKBONE|DICT|INTERRES
   105   54   55 1    
   106   54  120 1    
   107   55   56 1    
   108   55   57 1    
   109   55  121 1    
   110   56  122 1    
   111   56  123 1    
   112   56  124 1    
   113   57   58 2    
   114   57   59 am   BACKBONE|DICT|INTERRES
   115   59   60 1    
   116   59  125 1    
   117   60   61 1    
   118   60   62 1    
   119   60  126 1    
   120   61  127 1    
   121   61  128 1    
   122   61  129 1    
   123   62   63 2    
   124   62   64 am   BACKBONE|DICT|INTERRES
   125   64   65 1    
   126   64  130 1    
   127   65   66 1    
   128   65   69 1    
   129   65  131 1    
   130   66   67 am   BACKBONE|DICT|INTERRES
   131   66   68 2    
   132   67  132 1    
   133   67  133 1    
   134   69   70 1    
   135   69  134 1    
   136   69  135 1    
   137   70   71 1    
   138   71  136 1    
   139   71  137 1    
@<TRIPOS>SUBSTRUCTURE
     1 UNK         1 GROUP             0       ****    0 ROOT    
