@<TRIPOS>MOLECULE
3R137
137   139    1
SMALL
USER_CHARGES


@<TRIPOS>ATOM
      1 CA         27.0924    0.2100   -1.5898 C.3       0 UNK        -0.2020 
      2 C          27.8470    0.0736   -0.2710 C.2       0 UNK         0.4855 
      3 O          28.1254    1.0870    0.3671 O.2       0 UNK        -0.5197 
      4 N          28.2113   -1.1342    0.1809 N.am      1 UNK        -0.4892 
      5 CA         27.9244   -2.4480   -0.4110 C.3       1 UNK         0.0835 
      6 C6         28.6797   -3.5773    0.3369 C.3       12 UNK        -0.0855 
      7 S7         30.4889   -3.3481    0.3659 S.3       12 UNK        -0.2931 
      8 C8         31.0254   -4.4933   -0.9433 C.3       12 UNK         0.0378 
      9 C9         30.7494   -3.9280   -2.3283 C.ar      12 UNK        -0.0802 
     10 C10        31.5979   -2.9517   -2.8566 C.ar      12 UNK        -0.0944 
     11 C11        31.3880   -2.4334   -4.1374 C.ar      12 UNK        -0.0787 
     12 C12        30.2974   -2.8974   -4.8849 C.ar      12 UNK        -0.0862 
     13 C13        29.4407   -3.8760   -4.3695 C.ar      12 UNK        -0.0733 
     14 C14        29.6711   -4.3894   -3.0896 C.ar      12 UNK        -0.0832 
     15 C15        28.3020   -4.4137   -5.2226 C.3       12 UNK         0.0240 
     16 S16        26.8102   -3.3689   -5.1164 S.3       12 UNK        -0.2522 
     17 C17        26.3402   -3.2245   -6.8850 C.3       12 UNK        -0.0967 
     18 CA         26.3324   -1.7773   -7.4419 C.3       5 UNK         0.0660 
     19 N          25.2769   -0.9686   -6.8303 N.am      5 UNK        -0.4015 
     20 C          24.9696    0.3008   -7.1313 C.2       4 UNK         0.4946 
     21 O          25.5183    0.9250   -8.0406 O.2       4 UNK        -0.5353 
     22 CA         23.9089    1.0166   -6.2649 C.3       4 UNK         0.0277 
     23 CB         22.8298    1.6657   -7.1488 C.3       4 UNK        -0.1981 
     24 N          23.2532    0.1774   -5.2514 N.am      4 UNK        -0.4209 
     25 C          23.8435   -0.3910   -4.1908 C.2       3 UNK         0.4942 
     26 O          25.0439   -0.2642   -3.9403 O.2       3 UNK        -0.5208 
     27 CA         22.9802   -1.3135   -3.3159 C.3       3 UNK         0.0250 
     28 CB         21.8282   -1.9843   -4.1057 C.3       3 UNK        -0.1990 
     29 N          23.8640   -2.3190   -2.7282 N.am      3 UNK        -0.4232 
     30 C          23.5465   -3.1979   -1.7718 C.2       2 UNK         0.4993 
     31 O          22.4480   -3.2504   -1.2171 O.2       2 UNK        -0.5286 
     32 CA         24.6377   -4.2025   -1.3703 C.3       2 UNK         0.0209 
     33 CB         24.6233   -5.4168   -2.3141 C.3       2 UNK        -0.1931 
     34 N          25.9880   -3.6325   -1.3377 N.am      2 UNK        -0.4546 
     35 C          26.4152   -2.7725   -0.4032 C.2       1 UNK         0.5154 
     36 O          25.6886   -2.3016    0.4754 O.2       1 UNK        -0.5181 
     37 C          27.7198   -1.1033   -7.3656 C.2       5 UNK         0.5014 
     38 O          28.4857   -1.1891   -8.3242 O.2       5 UNK        -0.5248 
     39 N          27.9885   -0.3968   -6.2569 N.am      6 UNK        -0.4434 
     40 CA         29.1981    0.3967   -6.0403 C.3       6 UNK         0.0363 
     41 CB         29.2567    0.8456   -4.5728 C.3       6 UNK        -0.1936 
     42 C          29.3218    1.6012   -6.9851 C.2       6 UNK         0.5081 
     43 O          30.4410    1.9588   -7.3510 O.2       6 UNK        -0.5248 
     44 N          28.1873    2.1935   -7.3802 N.am      7 UNK        -0.4718 
     45 CA         28.1350    3.2692   -8.3698 C.3       7 UNK         0.0273 
     46 CB         26.8556    4.0997   -8.1764 C.3       7 UNK        -0.1935 
     47 C          28.2215    2.7102   -9.7970 C.2       7 UNK         0.5018 
     48 O          28.9342    3.2811  -10.6215 O.2       7 UNK        -0.5186 
     49 N          27.5242    1.5926  -10.0525 N.am      8 UNK        -0.4240 
     50 CA         27.5045    0.8915  -11.3398 C.3       8 UNK         0.0235 
     51 CB         26.4395   -0.2160  -11.3111 C.3       8 UNK        -0.2000 
     52 C          28.8767    0.3219  -11.7393 C.2       8 UNK         0.4941 
     53 O          29.3018    0.5167  -12.8786 O.2       8 UNK        -0.5273 
     54 N          29.5550   -0.3460  -10.7950 N.am      9 UNK        -0.4262 
     55 CA         30.9147   -0.8693  -10.9658 C.3       9 UNK         0.0264 
     56 CB         31.1366   -2.0230   -9.9741 C.3       9 UNK        -0.1955 
     57 C          32.0038    0.2056  -10.7903 C.2       9 UNK         0.5031 
     58 O          33.1559   -0.0518  -11.1409 O.2       9 UNK        -0.5390 
     59 N          31.6297    1.3698  -10.2381 N.am      10 UNK        -0.4204 
     60 CA         32.4629    2.5387   -9.9292 C.3       10 UNK         0.0237 
     61 CB         33.0604    3.1506  -11.2143 C.3       10 UNK        -0.1985 
     62 C          33.5241    2.2936   -8.8360 C.2       10 UNK         0.4970 
     63 O          34.4641    3.0828   -8.7226 O.2       10 UNK        -0.4914 
     64 N          33.3526    1.2326   -8.0371 N.am      11 UNK        -0.4285 
     65 CA         34.1766    0.9271   -6.8597 C.3       11 UNK         0.1007 
     66 C          33.7935    1.7320   -5.5849 C.2       11 UNK         0.5703 
     67 N          32.6503    2.4058   -5.5386 N.am      11 UNK        -0.7361 
     68 O          34.5595    1.7578   -4.6248 O.2       11 UNK        -0.4986 
     69 C69        34.2776   -0.5991   -6.5936 C.3       12 UNK        -0.0947 
     70 S70        32.6827   -1.4799   -6.4571 S.3       12 UNK        -0.2240 
     71 C71        32.3499   -1.3691   -4.6662 C.3       12 UNK         0.0194 
     72 H72        27.4310   -0.5009   -2.3414 H         1 UNK         0.0906 
     73 H73        26.0249    0.0632   -1.4277 H         1 UNK         0.0906 
     74 H74        27.2291    1.2085   -2.0038 H         1 UNK         0.0906 
     75 H75        28.7173   -1.1776    1.0537 H         1 UNK         0.3140 
     76 H76        28.2705   -2.4317   -1.4461 H         1 UNK         0.1085 
     77 H77        28.4550   -4.5522   -0.1005 H         1 UNK         0.0836 
     78 H78        28.3414   -3.6365    1.3737 H         1 UNK         0.0836 
     79 H79        32.0967   -4.6698   -0.8348 H         1 UNK         0.0731 
     80 H80        30.5468   -5.4650   -0.8115 H         1 UNK         0.0731 
     81 H81        32.4303   -2.5981   -2.2631 H         1 UNK         0.1312 
     82 H82        30.1181   -2.5140   -5.8790 H         1 UNK         0.1406 
     83 H83        29.0221   -5.1586   -2.6936 H         1 UNK         0.1631 
     84 H84        28.0414   -5.4281   -4.9168 H         1 UNK         0.0717 
     85 H85        28.6533   -4.4952   -6.2514 H         1 UNK         0.0717 
     86 H86        26.9851   -3.8469   -7.5066 H         1 UNK         0.0934 
     87 H87        25.3466   -3.6614   -6.9978 H         1 UNK         0.0934 
     88 H88        26.0789   -1.8434   -8.5010 H         1 UNK         0.0739 
     89 H89        24.8149   -1.3820   -6.0347 H         1 UNK         0.3093 
     90 H90        24.4353    1.8138   -5.7361 H         1 UNK         0.0818 
     91 H91        22.1231    2.2446   -6.5539 H         1 UNK         0.0819 
     92 H92        23.2727    2.3514   -7.8728 H         1 UNK         0.0819 
     93 H93        22.2667    0.9195   -7.7106 H         1 UNK         0.0819 
     94 H94        22.2703   -0.0044   -5.3965 H         1 UNK         0.3041 
     95 H95        22.5628   -0.7067   -2.5103 H         1 UNK         0.0784 
     96 H96        21.1165   -1.2493   -4.4830 H         1 UNK         0.0793 
     97 H97        22.2019   -2.5568   -4.9558 H         1 UNK         0.0793 
     98 H98        21.2515   -2.6666   -3.4819 H         1 UNK         0.0793 
     99 H99        24.8130   -2.2943   -3.0809 H         1 UNK         0.3024 
    100 H100       24.3959   -4.5541   -0.3641 H         1 UNK         0.1171 
    101 H101       23.6348   -5.8779   -2.3407 H         1 UNK         0.0786 
    102 H102       25.3266   -6.1830   -1.9872 H         1 UNK         0.0786 
    103 H103       24.8797   -5.1392   -3.3373 H         1 UNK         0.0786 
    104 H104       26.6355   -3.9719   -2.0344 H         1 UNK         0.2977 
    105 H105       27.2996   -0.3955   -5.5167 H         1 UNK         0.3127 
    106 H106       30.0569   -0.2426   -6.2391 H         1 UNK         0.0770 
    107 H107       28.3889    1.4467   -4.2994 H         1 UNK         0.0814 
    108 H108       30.1444    1.4498   -4.3825 H         1 UNK         0.0814 
    109 H109       29.3026   -0.0114   -3.9008 H         1 UNK         0.0814 
    110 H110       27.3017    1.7980   -7.0931 H         1 UNK         0.2983 
    111 H111       28.9906    3.9318   -8.2178 H         1 UNK         0.0947 
    112 H112       26.8252    4.9327   -8.8799 H         1 UNK         0.0806 
    113 H113       26.8062    4.5223   -7.1728 H         1 UNK         0.0806 
    114 H114       25.9534    3.5089   -8.3357 H         1 UNK         0.0806 
    115 H115       26.9224    1.2263   -9.3188 H         1 UNK         0.3000 
    116 H116       27.2146    1.6191  -12.1010 H         1 UNK         0.0850 
    117 H117       26.3462   -0.6905  -12.2888 H         1 UNK         0.0810 
    118 H118       25.4589    0.1804  -11.0465 H         1 UNK         0.0810 
    119 H119       26.6902   -0.9973  -10.5943 H         1 UNK         0.0810 
    120 H120       29.1139   -0.5199   -9.8915 H         1 UNK         0.3040 
    121 H121       31.0128   -1.2697  -11.9771 H         1 UNK         0.0766 
    122 H122       32.1293   -2.4594  -10.0923 H         1 UNK         0.0812 
    123 H123       30.4101   -2.8215  -10.1252 H         1 UNK         0.0812 
    124 H124       31.0499   -1.6861   -8.9413 H         1 UNK         0.0812 
    125 H125       30.6570    1.4646   -9.9802 H         1 UNK         0.3205 
    126 H126       31.7788    3.2770   -9.5080 H         1 UNK         0.0754 
    127 H127       33.5388    4.1087  -11.0076 H         1 UNK         0.0769 
    128 H128       32.2875    3.3319  -11.9614 H         1 UNK         0.0769 
    129 H129       33.8143    2.5015  -11.6605 H         1 UNK         0.0769 
    130 H130       32.5262    0.6661   -8.1569 H         1 UNK         0.2981 
    131 H131       35.1934    1.2508   -7.0898 H         1 UNK         0.0541 
    132 H132       31.9849    2.3507   -6.3041 H         1 UNK         0.3459 
    133 H133       32.4278    2.9391   -4.7143 H         1 UNK         0.3459 
    134 H134       34.8894   -0.8030   -5.7132 H         1 UNK         0.0612 
    135 H135       34.8158   -1.0601   -7.4231 H         1 UNK         0.0612 
    136 H136       33.2990   -1.4425   -4.1335 H         1 UNK         0.0624 
    137 H137       31.9447   -0.3833   -4.4395 H         1 UNK         0.0624 
@<TRIPOS>BOND
     1    1    2 1    
     2    1   72 1    
     3    1   73 1    
     4    1   74 1    
     5    2    3 2    
     6    2    4 am   BACKBONE|DICT|INTERRES
     7    4    5 1    
     8    4   75 1    
     9    5    6 1    
    10    5   35 1    
    11    5   76 1    
    12    6    7 1    
    13    6   77 1    
    14    6   78 1    
    15    7    8 1    
    16    8    9 1    
    17    8   79 1    
    18    8   80 1    
    19    9   10 ar   
    20    9   14 ar   
    21   10   11 ar   
    22   10   81 1    
    23   11   12 ar   
    24   11   71 1    
    25   12   13 ar   
    26   12   82 1    
    27   13   14 ar   
    28   13   15 1    
    29   14   83 1    
    30   15   16 1    
    31   15   84 1    
    32   15   85 1    
    33   16   17 1    
    34   17   18 1    
    35   17   86 1    
    36   17   87 1    
    37   18   19 1    
    38   18   37 1    
    39   18   88 1    
    40   19   20 am   BACKBONE|DICT|INTERRES
    41   19   89 1    
    42   20   21 2    
    43   20   22 1    
    44   22   23 1    
    45   22   24 1    
    46   22   90 1    
    47   23   91 1    
    48   23   92 1    
    49   23   93 1    
    50   24   25 am   BACKBONE|DICT|INTERRES
    51   24   94 1    
    52   25   26 2    
    53   25   27 1    
    54   27   28 1    
    55   27   29 1    
    56   27   95 1    
    57   28   96 1    
    58   28   97 1    
    59   28   98 1    
    60   29   30 am   BACKBONE|DICT|INTERRES
    61   29   99 1    
    62   30   31 2    
    63   30   32 1    
    64   32   33 1    
    65   32   34 1    
    66   32  100 1    
    67   33  101 1    
    68   33  102 1    
    69   33  103 1    
    70   34   35 am   BACKBONE|DICT|INTERRES
    71   34  104 1    
    72   35   36 2    
    73   37   38 2    
    74   37   39 am   BACKBONE|DICT|INTERRES
    75   39   40 1    
    76   39  105 1    
    77   40   41 1    
    78   40   42 1    
    79   40  106 1    
    80   41  107 1    
    81   41  108 1    
    82   41  109 1    
    83   42   43 2    
    84   42   44 am   BACKBONE|DICT|INTERRES
    85   44   45 1    
    86   44  110 1    
    87   45   46 1    
    88   45   47 1    
    89   45  111 1    
    90   46  112 1    
    91   46  113 1    
    92   46  114 1    
    93   47   48 2    
    94   47   49 am   BACKBONE|DICT|INTERRES
    95   49   50 1    
    96   49  115 1    
    97   50   51 1    
    98   50   52 1    
    99   50  116 1    
   100   51  117 1    
   101   51  118 1    
   102   51  119 1    
   103   52   53 2    
   104   52   54 am   BACKBONE|DICT|INTERRES
   105   54   55 1    
   106   54  120 1    
   107   55   56 1    
   108   55   57 1    
   109   55  121 1    
   110   56  122 1    
   111   56  123 1    
   112   56  124 1    
   113   57   58 2    
   114   57   59 am   BACKBONE|DICT|INTERRES
   115   59   60 1    
   116   59  125 1    
   117   60   61 1    
   118   60   62 1    
   119   60  126 1    
   120   61  127 1    
   121   61  128 1    
   122   61  129 1    
   123   62   63 2    
   124   62   64 am   BACKBONE|DICT|INTERRES
   125   64   65 1    
   126   64  130 1    
   127   65   66 1    
   128   65   69 1    
   129   65  131 1    
   130   66   67 am   BACKBONE|DICT|INTERRES
   131   66   68 2    
   132   67  132 1    
   133   67  133 1    
   134   69   70 1    
   135   69  134 1    
   136   69  135 1    
   137   70   71 1    
   138   71  136 1    
   139   71  137 1    
@<TRIPOS>SUBSTRUCTURE
     1 UNK         1 GROUP             0       ****    0 ROOT    
