@<TRIPOS>MOLECULE
3R137
137   139    1
SMALL
USER_CHARGES


@<TRIPOS>ATOM
      1 CA         27.6552   -5.3328    1.3276 C.3       0 UNK        -0.2020 
      2 C          27.5598   -4.2001    0.3173 C.2       0 UNK         0.4855 
      3 O          27.3901   -4.4615   -0.8736 O.2       0 UNK        -0.5197 
      4 N          27.6708   -2.9485    0.7859 N.am      1 UNK        -0.4892 
      5 CA         27.6101   -1.6818    0.0343 C.3       1 UNK         0.0835 
      6 C6         28.6829   -1.5398   -1.0792 C.3       12 UNK        -0.0855 
      7 S7         30.3909   -1.6021   -0.4285 S.3       12 UNK        -0.2931 
      8 C8         30.9628   -3.2671   -0.9094 C.3       12 UNK         0.0378 
      9 C9         31.1654   -3.3931   -2.4121 C.ar      12 UNK        -0.0802 
     10 C10        32.3461   -2.9376   -3.0047 C.ar      12 UNK        -0.0944 
     11 C11        32.5305   -3.0382   -4.3870 C.ar      12 UNK        -0.0787 
     12 C12        31.5121   -3.5763   -5.1804 C.ar      12 UNK        -0.0862 
     13 C13        30.3222   -4.0302   -4.6005 C.ar      12 UNK        -0.0733 
     14 C14        30.1724   -3.9656   -3.2110 C.ar      12 UNK        -0.0832 
     15 C15        29.1994   -4.5663   -5.4869 C.3       12 UNK         0.0240 
     16 S16        27.5324   -3.9896   -5.0009 S.3       12 UNK        -0.2522 
     17 C17        27.7325   -2.1754   -5.0067 C.3       12 UNK        -0.0967 
     18 CA         27.0648   -1.5039   -6.2276 C.3       5 UNK         0.0660 
     19 N          25.6205   -1.7380   -6.2911 N.am      5 UNK        -0.4015 
     20 C          24.8514   -1.4669   -7.3550 C.2       4 UNK         0.4946 
     21 O          25.2841   -1.0292   -8.4206 O.2       4 UNK        -0.5353 
     22 CA         23.3373   -1.6781   -7.1871 C.3       4 UNK         0.0277 
     23 CB         22.9712   -3.1588   -7.3779 C.3       4 UNK        -0.1981 
     24 N          22.8444   -1.2099   -5.8893 N.am      4 UNK        -0.4209 
     25 C          22.8590    0.0711   -5.4913 C.2       3 UNK         0.4942 
     26 O          23.2240    1.0041   -6.2042 O.2       3 UNK        -0.5208 
     27 CA         22.4464    0.3561   -4.0366 C.3       3 UNK         0.0250 
     28 CB         20.9290    0.5800   -3.9411 C.3       3 UNK        -0.1990 
     29 N          22.8511   -0.6913   -3.0916 N.am      3 UNK        -0.4232 
     30 C          24.1150   -1.0819   -2.8738 C.2       2 UNK         0.4993 
     31 O          25.0888   -0.6144   -3.4700 O.2       2 UNK        -0.5286 
     32 CA         24.2985   -2.2429   -1.8825 C.3       2 UNK         0.0209 
     33 CB         24.0250   -3.5839   -2.5846 C.3       2 UNK        -0.1931 
     34 N          25.6377   -2.2975   -1.2950 N.am      2 UNK        -0.4546 
     35 C          26.1928   -1.3771   -0.4978 C.2       1 UNK         0.5154 
     36 O          25.6209   -0.3450   -0.1424 O.2       1 UNK        -0.5181 
     37 C          27.3812    0.0013   -6.2485 C.2       5 UNK         0.5014 
     38 O          28.2866    0.4132   -6.9718 O.2       5 UNK        -0.5248 
     39 N          26.6156    0.7968   -5.4867 N.am      6 UNK        -0.4434 
     40 CA         26.7151    2.2585   -5.4570 C.3       6 UNK         0.0363 
     41 CB         25.7935    2.8187   -4.3626 C.3       6 UNK        -0.1936 
     42 C          26.4109    2.9099   -6.8189 C.2       6 UNK         0.5081 
     43 O          27.1029    3.8533   -7.2020 O.2       6 UNK        -0.5248 
     44 N          25.4045    2.3845   -7.5324 N.am      7 UNK        -0.4718 
     45 CA         25.0478    2.7932   -8.8924 C.3       7 UNK         0.0273 
     46 CB         23.6744    2.2118   -9.2647 C.3       7 UNK        -0.1935 
     47 C          26.1081    2.3945   -9.9329 C.2       7 UNK         0.5018 
     48 O          26.4160    3.2012  -10.8115 O.2       7 UNK        -0.5186 
     49 N          26.6445    1.1697   -9.8212 N.am      8 UNK        -0.4240 
     50 CA         27.7068    0.6493  -10.6875 C.3       8 UNK         0.0235 
     51 CB         27.8662   -0.8633  -10.4638 C.3       8 UNK        -0.2000 
     52 C          29.0525    1.3679  -10.4901 C.2       8 UNK         0.4941 
     53 O          29.7355    1.6405  -11.4788 O.2       8 UNK        -0.5273 
     54 N          29.3947    1.6639   -9.2273 N.am      9 UNK        -0.4262 
     55 CA         30.6324    2.2960   -8.7648 C.3       9 UNK         0.0264 
     56 CB         30.7076    3.7672   -9.2357 C.3       9 UNK        -0.1955 
     57 C          31.8650    1.4360   -9.1109 C.2       9 UNK         0.5031 
     58 O          31.8499    0.2369   -8.8259 O.2       9 UNK        -0.5390 
     59 N          32.8987    2.0521   -9.7031 N.am      10 UNK        -0.4204 
     60 CA         34.1914    1.4664  -10.0716 C.3       10 UNK         0.0237 
     61 CB         34.0331    0.3670  -11.1489 C.3       10 UNK        -0.1985 
     62 C          34.9865    1.0301   -8.8271 C.2       10 UNK         0.4970 
     63 O          35.5304    1.9007   -8.1453 O.2       10 UNK        -0.4914 
     64 N          35.0523   -0.2828   -8.5680 N.am      11 UNK        -0.4285 
     65 CA         35.8664   -0.9298   -7.5235 C.3       11 UNK         0.1007 
     66 C          37.4007   -0.7968   -7.7825 C.2       11 UNK         0.5703 
     67 N          38.2447   -1.1224   -6.8117 N.am      11 UNK        -0.7361 
     68 O          37.8455   -0.4509   -8.8765 O.2       11 UNK        -0.4986 
     69 C69        35.4424   -0.5377   -6.0738 C.3       12 UNK        -0.0947 
     70 S70        33.6924   -0.8964   -5.7021 S.3       12 UNK        -0.2240 
     71 C71        33.8349   -2.5752   -5.0173 C.3       12 UNK         0.0194 
     72 H72        28.4835   -5.9928    1.0716 H         1 UNK         0.0906 
     73 H73        27.8150   -4.9656    2.3412 H         1 UNK         0.0906 
     74 H74        26.7371   -5.9196    1.3196 H         1 UNK         0.0906 
     75 H75        27.7920   -2.8257    1.7821 H         1 UNK         0.3140 
     76 H76        27.8179   -0.9039    0.7714 H         1 UNK         0.1085 
     77 H77        28.5711   -0.5786   -1.5849 H         1 UNK         0.0836 
     78 H78        28.5411   -2.2914   -1.8534 H         1 UNK         0.0836 
     79 H79        31.9055   -3.4716   -0.3997 H         1 UNK         0.0731 
     80 H80        30.2618   -4.0204   -0.5517 H         1 UNK         0.0731 
     81 H81        33.1211   -2.5029   -2.3879 H         1 UNK         0.1312 
     82 H82        31.6468   -3.6320   -6.2522 H         1 UNK         0.1406 
     83 H83        29.2614   -4.3285   -2.7541 H         1 UNK         0.1631 
     84 H84        29.2171   -5.6563   -5.4555 H         1 UNK         0.0717 
     85 H85        29.3664   -4.2826   -6.5272 H         1 UNK         0.0717 
     86 H86        27.3155   -1.7919   -4.0745 H         1 UNK         0.0934 
     87 H87        28.7932   -1.9213   -4.9763 H         1 UNK         0.0934 
     88 H88        27.5058   -1.9373   -7.1281 H         1 UNK         0.0739 
     89 H89        25.1849   -2.0496   -5.4361 H         1 UNK         0.3093 
     90 H90        22.8351   -1.0985   -7.9649 H         1 UNK         0.0818 
     91 H91        21.8918   -3.3081   -7.3445 H         1 UNK         0.0819 
     92 H92        23.3165   -3.5224   -8.3468 H         1 UNK         0.0819 
     93 H93        23.4225   -3.7922   -6.6130 H         1 UNK         0.0819 
     94 H94        22.5122   -1.9095   -5.2422 H         1 UNK         0.3041 
     95 H95        22.9449    1.2778   -3.7311 H         1 UNK         0.0784 
     96 H96        20.6086    1.3706   -4.6215 H         1 UNK         0.0793 
     97 H97        20.3687   -0.3193   -4.2000 H         1 UNK         0.0793 
     98 H98        20.6344    0.8827   -2.9360 H         1 UNK         0.0793 
     99 H99        22.1080   -1.1365   -2.5716 H         1 UNK         0.3024 
    100 H100       23.5854   -2.1129   -1.0656 H         1 UNK         0.1171 
    101 H101       23.0193   -3.6166   -3.0056 H         1 UNK         0.0786 
    102 H102       24.1077   -4.4187   -1.8880 H         1 UNK         0.0786 
    103 H103       24.7282   -3.7619   -3.3996 H         1 UNK         0.0786 
    104 H104       26.1885   -3.1334   -1.4749 H         1 UNK         0.2977 
    105 H105       25.9288    0.3653   -4.8711 H         1 UNK         0.3127 
    106 H106       27.7451    2.5089   -5.1943 H         1 UNK         0.0770 
    107 H107       24.7434    2.6341   -4.5874 H         1 UNK         0.0814 
    108 H108       25.9194    3.8976   -4.2647 H         1 UNK         0.0814 
    109 H109       26.0123    2.3751   -3.3910 H         1 UNK         0.0814 
    110 H110       24.8261    1.6660   -7.1050 H         1 UNK         0.2983 
    111 H111       24.9686    3.8825   -8.9044 H         1 UNK         0.0947 
    112 H112       23.3809    2.5146  -10.2706 H         1 UNK         0.0806 
    113 H113       22.8994    2.5601   -8.5817 H         1 UNK         0.0806 
    114 H114       23.6762    1.1216   -9.2379 H         1 UNK         0.0806 
    115 H115       26.2826    0.5391   -9.1111 H         1 UNK         0.3000 
    116 H116       27.3979    0.8068  -11.7232 H         1 UNK         0.0850 
    117 H117       28.6402   -1.2748  -11.1129 H         1 UNK         0.0810 
    118 H118       26.9408   -1.3963  -10.6826 H         1 UNK         0.0810 
    119 H119       28.1480   -1.0905   -9.4351 H         1 UNK         0.0810 
    120 H120       28.8059    1.2988   -8.4795 H         1 UNK         0.3040 
    121 H121       30.5708    2.3039   -7.6756 H         1 UNK         0.0766 
    122 H122       31.5495    4.2891   -8.7792 H         1 UNK         0.0812 
    123 H123       29.8072    4.3104   -8.9467 H         1 UNK         0.0812 
    124 H124       30.8051    3.8511  -10.3187 H         1 UNK         0.0812 
    125 H125       32.8102    3.0442   -9.8727 H         1 UNK         0.3205 
    126 H126       34.7694    2.2727  -10.5261 H         1 UNK         0.0754 
    127 H127       35.0042   -0.0328  -11.4444 H         1 UNK         0.0769 
    128 H128       33.5669    0.7701  -12.0480 H         1 UNK         0.0769 
    129 H129       33.4205   -0.4698  -10.8133 H         1 UNK         0.0769 
    130 H130       34.5528   -0.9086   -9.1817 H         1 UNK         0.2981 
    131 H131       35.6678   -1.9955   -7.6398 H         1 UNK         0.0541 
    132 H132       39.2356   -1.0559   -6.9850 H         1 UNK         0.3459 
    133 H133       37.9139   -1.4332   -5.9122 H         1 UNK         0.3459 
    134 H134       35.6133    0.5251   -5.8991 H         1 UNK         0.0612 
    135 H135       36.0521   -1.0555   -5.3329 H         1 UNK         0.0612 
    136 H136       34.6330   -2.6004   -4.2738 H         1 UNK         0.0624 
    137 H137       34.1303   -3.2631   -5.8108 H         1 UNK         0.0624 
@<TRIPOS>BOND
     1    1    2 1    
     2    1   72 1    
     3    1   73 1    
     4    1   74 1    
     5    2    3 2    
     6    2    4 am   BACKBONE|DICT|INTERRES
     7    4    5 1    
     8    4   75 1    
     9    5    6 1    
    10    5   35 1    
    11    5   76 1    
    12    6    7 1    
    13    6   77 1    
    14    6   78 1    
    15    7    8 1    
    16    8    9 1    
    17    8   79 1    
    18    8   80 1    
    19    9   10 ar   
    20    9   14 ar   
    21   10   11 ar   
    22   10   81 1    
    23   11   12 ar   
    24   11   71 1    
    25   12   13 ar   
    26   12   82 1    
    27   13   14 ar   
    28   13   15 1    
    29   14   83 1    
    30   15   16 1    
    31   15   84 1    
    32   15   85 1    
    33   16   17 1    
    34   17   18 1    
    35   17   86 1    
    36   17   87 1    
    37   18   19 1    
    38   18   37 1    
    39   18   88 1    
    40   19   20 am   BACKBONE|DICT|INTERRES
    41   19   89 1    
    42   20   21 2    
    43   20   22 1    
    44   22   23 1    
    45   22   24 1    
    46   22   90 1    
    47   23   91 1    
    48   23   92 1    
    49   23   93 1    
    50   24   25 am   BACKBONE|DICT|INTERRES
    51   24   94 1    
    52   25   26 2    
    53   25   27 1    
    54   27   28 1    
    55   27   29 1    
    56   27   95 1    
    57   28   96 1    
    58   28   97 1    
    59   28   98 1    
    60   29   30 am   BACKBONE|DICT|INTERRES
    61   29   99 1    
    62   30   31 2    
    63   30   32 1    
    64   32   33 1    
    65   32   34 1    
    66   32  100 1    
    67   33  101 1    
    68   33  102 1    
    69   33  103 1    
    70   34   35 am   BACKBONE|DICT|INTERRES
    71   34  104 1    
    72   35   36 2    
    73   37   38 2    
    74   37   39 am   BACKBONE|DICT|INTERRES
    75   39   40 1    
    76   39  105 1    
    77   40   41 1    
    78   40   42 1    
    79   40  106 1    
    80   41  107 1    
    81   41  108 1    
    82   41  109 1    
    83   42   43 2    
    84   42   44 am   BACKBONE|DICT|INTERRES
    85   44   45 1    
    86   44  110 1    
    87   45   46 1    
    88   45   47 1    
    89   45  111 1    
    90   46  112 1    
    91   46  113 1    
    92   46  114 1    
    93   47   48 2    
    94   47   49 am   BACKBONE|DICT|INTERRES
    95   49   50 1    
    96   49  115 1    
    97   50   51 1    
    98   50   52 1    
    99   50  116 1    
   100   51  117 1    
   101   51  118 1    
   102   51  119 1    
   103   52   53 2    
   104   52   54 am   BACKBONE|DICT|INTERRES
   105   54   55 1    
   106   54  120 1    
   107   55   56 1    
   108   55   57 1    
   109   55  121 1    
   110   56  122 1    
   111   56  123 1    
   112   56  124 1    
   113   57   58 2    
   114   57   59 am   BACKBONE|DICT|INTERRES
   115   59   60 1    
   116   59  125 1    
   117   60   61 1    
   118   60   62 1    
   119   60  126 1    
   120   61  127 1    
   121   61  128 1    
   122   61  129 1    
   123   62   63 2    
   124   62   64 am   BACKBONE|DICT|INTERRES
   125   64   65 1    
   126   64  130 1    
   127   65   66 1    
   128   65   69 1    
   129   65  131 1    
   130   66   67 am   BACKBONE|DICT|INTERRES
   131   66   68 2    
   132   67  132 1    
   133   67  133 1    
   134   69   70 1    
   135   69  134 1    
   136   69  135 1    
   137   70   71 1    
   138   71  136 1    
   139   71  137 1    
@<TRIPOS>SUBSTRUCTURE
     1 UNK         1 GROUP             0       ****    0 ROOT    
