@<TRIPOS>MOLECULE
3R137
137   139    1
SMALL
USER_CHARGES


@<TRIPOS>ATOM
      1 CA         28.8850    0.2479    1.2232 C.3       0 UNK        -0.2020 
      2 C          28.2309   -0.9142    0.4914 C.2       0 UNK         0.4855 
      3 O          27.3705   -1.5858    1.0624 O.2       0 UNK        -0.5197 
      4 N          28.6279   -1.1447   -0.7685 N.am      1 UNK        -0.4892 
      5 CA         28.1802   -2.2071   -1.6863 C.3       1 UNK         0.0835 
      6 C6         28.3998   -3.6525   -1.1598 C.3       12 UNK        -0.0855 
      7 S7         30.1319   -3.9800   -0.6853 S.3       12 UNK        -0.2931 
      8 C8         30.6377   -5.2297   -1.9100 C.3       12 UNK         0.0378 
      9 C9         30.7783   -4.6471   -3.3095 C.ar      12 UNK        -0.0802 
     10 C10        31.7830   -3.7104   -3.5777 C.ar      12 UNK        -0.0944 
     11 C11        31.9499   -3.1996   -4.8670 C.ar      12 UNK        -0.0787 
     12 C12        31.0946   -3.6276   -5.8836 C.ar      12 UNK        -0.0862 
     13 C13        30.0837   -4.5597   -5.6381 C.ar      12 UNK        -0.0733 
     14 C14        29.9358   -5.0734   -4.3437 C.ar      12 UNK        -0.0832 
     15 C15        29.2158   -5.0234   -6.8092 C.3       12 UNK         0.0240 
     16 S16        27.4630   -5.3549   -6.4183 S.3       12 UNK        -0.2522 
     17 C17        26.9122   -3.8035   -5.6413 C.3       12 UNK        -0.0967 
     18 CA         26.6101   -2.6536   -6.6443 C.3       5 UNK         0.0660 
     19 N          25.3651   -1.9444   -6.3182 N.am      5 UNK        -0.4015 
     20 C          24.7717   -1.0466   -7.1195 C.2       4 UNK         0.4946 
     21 O          25.1957   -0.7341   -8.2319 O.2       4 UNK        -0.5353 
     22 CA         23.5036   -0.3602   -6.5895 C.3       4 UNK         0.0277 
     23 CB         22.2810   -1.2770   -6.7532 C.3       4 UNK        -0.1981 
     24 N          23.6039    0.0775   -5.1964 N.am      4 UNK        -0.4209 
     25 C          24.4508    1.0010   -4.7251 C.2       3 UNK         0.4942 
     26 O          25.3098    1.5505   -5.4113 O.2       3 UNK        -0.5208 
     27 CA         24.3298    1.3738   -3.2358 C.3       3 UNK         0.0250 
     28 CB         23.0293    2.1493   -2.9462 C.3       3 UNK        -0.1990 
     29 N          24.5005    0.2283   -2.3341 N.am      3 UNK        -0.4232 
     30 C          23.7444   -0.8738   -2.2243 C.2       2 UNK         0.4993 
     31 O          22.6602   -1.0177   -2.7936 O.2       2 UNK        -0.5286 
     32 CA         24.3146   -2.0286   -1.3750 C.3       2 UNK         0.0209 
     33 CB         23.8726   -3.4054   -1.9156 C.3       2 UNK        -0.1931 
     34 N          25.7771   -2.0162   -1.2059 N.am      2 UNK        -0.4546 
     35 C          26.7247   -2.0085   -2.1554 C.2       1 UNK         0.5154 
     36 O          26.4924   -1.8325   -3.3519 O.2       1 UNK        -0.5181 
     37 C          27.7840   -1.6595   -6.7295 C.2       5 UNK         0.5014 
     38 O          28.5391   -1.6725   -7.7044 O.2       5 UNK        -0.5248 
     39 N          27.8716   -0.7856   -5.7161 N.am      6 UNK        -0.4434 
     40 CA         28.8638    0.2804   -5.6138 C.3       6 UNK         0.0363 
     41 CB         28.7523    0.9768   -4.2496 C.3       6 UNK        -0.1936 
     42 C          28.7933    1.2958   -6.7623 C.2       6 UNK         0.5081 
     43 O          29.8399    1.6857   -7.2795 O.2       6 UNK        -0.5248 
     44 N          27.5735    1.6828   -7.1578 N.am      7 UNK        -0.4718 
     45 CA         27.3096    2.5554   -8.3019 C.3       7 UNK         0.0273 
     46 CB         25.8416    3.0096   -8.2822 C.3       7 UNK        -0.1935 
     47 C          27.6537    1.8935   -9.6449 C.2       7 UNK         0.5018 
     48 O          28.2527    2.5514  -10.4955 O.2       7 UNK        -0.5186 
     49 N          27.2899    0.6120   -9.8086 N.am      8 UNK        -0.4240 
     50 CA         27.5636   -0.1807  -11.0114 C.3       8 UNK         0.0235 
     51 CB         26.8183   -1.5233  -10.9379 C.3       8 UNK        -0.2000 
     52 C          29.0641   -0.4055  -11.2548 C.2       8 UNK         0.4941 
     53 O          29.5216   -0.2475  -12.3875 O.2       8 UNK        -0.5273 
     54 N          29.8036   -0.7516  -10.1923 N.am      9 UNK        -0.4262 
     55 CA         31.2580   -0.9315  -10.2346 C.3       9 UNK         0.0264 
     56 CB         31.6828   -1.8053   -9.0498 C.3       9 UNK        -0.1955 
     57 C          32.0429    0.3913  -10.2149 C.2       9 UNK         0.5031 
     58 O          33.2177    0.3907  -10.5848 O.2       9 UNK        -0.5390 
     59 N          31.3978    1.4732   -9.7560 N.am      10 UNK        -0.4204 
     60 CA         31.9492    2.8084   -9.5030 C.3       10 UNK         0.0237 
     61 CB         32.4467    3.4699  -10.8064 C.3       10 UNK        -0.1985 
     62 C          32.9970    2.8252   -8.3701 C.2       10 UNK         0.4970 
     63 O          33.8939    3.6706   -8.3862 O.2       10 UNK        -0.4914 
     64 N          32.8576    1.9108   -7.3989 N.am      11 UNK        -0.4285 
     65 CA         33.6708    1.8666   -6.1729 C.3       11 UNK         0.1007 
     66 C          33.1287    2.7782   -5.0330 C.2       11 UNK         0.5703 
     67 N          31.9181    3.3179   -5.1342 N.am      11 UNK        -0.7361 
     68 O          33.8284    3.0160   -4.0513 O.2       11 UNK        -0.4986 
     69 C69        33.9494    0.4120   -5.7014 C.3       12 UNK        -0.0947 
     70 S70        32.4675   -0.5011   -5.1590 S.3       12 UNK        -0.2240 
     71 C71        33.0690   -2.2145   -5.1790 C.3       12 UNK         0.0194 
     72 H72        28.1301    0.9726    1.5270 H         1 UNK         0.0906 
     73 H73        29.3912   -0.1121    2.1185 H         1 UNK         0.0906 
     74 H74        29.6189    0.7621    0.6029 H         1 UNK         0.0906 
     75 H75        29.3389   -0.5399   -1.1555 H         1 UNK         0.3140 
     76 H76        28.7998   -2.1027   -2.5794 H         1 UNK         0.1085 
     77 H77        27.7747   -3.8508   -0.2877 H         1 UNK         0.0836 
     78 H78        28.0917   -4.3788   -1.9145 H         1 UNK         0.0836 
     79 H79        31.5982   -5.6477   -1.6054 H         1 UNK         0.0731 
     80 H80        29.9285   -6.0589   -1.8959 H         1 UNK         0.0731 
     81 H81        32.4414   -3.3886   -2.7822 H         1 UNK         0.1312 
     82 H82        31.2280   -3.2430   -6.8800 H         1 UNK         0.1406 
     83 H83        29.1718   -5.8127   -4.1451 H         1 UNK         0.1631 
     84 H84        29.6528   -5.9358   -7.2164 H         1 UNK         0.0717 
     85 H85        29.2454   -4.2898   -7.6161 H         1 UNK         0.0717 
     86 H86        27.6354   -3.5136   -4.8782 H         1 UNK         0.0934 
     87 H87        26.0108   -4.0600   -5.0823 H         1 UNK         0.0934 
     88 H88        26.4720   -3.0797   -7.6405 H         1 UNK         0.0739 
     89 H89        24.9876   -2.0948   -5.3934 H         1 UNK         0.3093 
     90 H90        23.3406    0.5319   -7.1980 H         1 UNK         0.0818 
     91 H91        21.3593   -0.7585   -6.4884 H         1 UNK         0.0819 
     92 H92        22.1779   -1.6102   -7.7870 H         1 UNK         0.0819 
     93 H93        22.3550   -2.1677   -6.1279 H         1 UNK         0.0819 
     94 H94        22.9784   -0.3554   -4.5202 H         1 UNK         0.3041 
     95 H95        25.1613    2.0458   -3.0167 H         1 UNK         0.0784 
     96 H96        22.9645    3.0420   -3.5697 H         1 UNK         0.0793 
     97 H97        22.1378    1.5537   -3.1433 H         1 UNK         0.0793 
     98 H98        22.9885    2.4766   -1.9073 H         1 UNK         0.0793 
     99 H99        25.3794    0.2097   -1.8365 H         1 UNK         0.3024 
    100 H100       23.8862   -1.9060   -0.3789 H         1 UNK         0.1171 
    101 H101       24.2550   -4.2162   -1.2955 H         1 UNK         0.0786 
    102 H102       24.2239   -3.5694   -2.9350 H         1 UNK         0.0786 
    103 H103       22.7857   -3.4968   -1.9262 H         1 UNK         0.0786 
    104 H104       26.1156   -2.0533   -0.2456 H         1 UNK         0.2977 
    105 H105       27.2200   -0.8882   -4.9443 H         1 UNK         0.3127 
    106 H106       29.8341   -0.2040   -5.6775 H         1 UNK         0.0770 
    107 H107       27.7728    1.4344   -4.1072 H         1 UNK         0.0814 
    108 H108       29.5001    1.7652   -4.1541 H         1 UNK         0.0814 
    109 H109       28.9195    0.2757   -3.4337 H         1 UNK         0.0814 
    110 H110       26.7648    1.3780   -6.6207 H         1 UNK         0.2983 
    111 H111       27.9411    3.4407   -8.1992 H         1 UNK         0.0947 
    112 H112       25.6228    3.6660   -9.1255 H         1 UNK         0.0806 
    113 H113       25.6117    3.5635   -7.3718 H         1 UNK         0.0806 
    114 H114       25.1565    2.1627   -8.3386 H         1 UNK         0.0806 
    115 H115       26.7563    0.1543   -9.0740 H         1 UNK         0.3000 
    116 H116       27.1729    0.3752  -11.8664 H         1 UNK         0.0850 
    117 H117       27.0130   -2.1289  -11.8240 H         1 UNK         0.0810 
    118 H118       25.7401   -1.3737  -10.8789 H         1 UNK         0.0810 
    119 H119       27.1215   -2.1074  -10.0683 H         1 UNK         0.0810 
    120 H120       29.3389   -0.9229   -9.3021 H         1 UNK         0.3040 
    121 H121       31.5211   -1.4562  -11.1557 H         1 UNK         0.0766 
    122 H122       32.7602   -1.9771   -9.0492 H         1 UNK         0.0812 
    123 H123       31.4244   -1.3339   -8.1004 H         1 UNK         0.0812 
    124 H124       31.1971   -2.7798   -9.0958 H         1 UNK         0.0812 
    125 H125       30.4477    1.3440   -9.4304 H         1 UNK         0.3205 
    126 H126       31.1118    3.4050   -9.1379 H         1 UNK         0.0754 
    127 H127       32.6992    4.5180  -10.6411 H         1 UNK         0.0769 
    128 H128       31.6803    3.4412  -11.5811 H         1 UNK         0.0769 
    129 H129       33.3388    2.9798  -11.1970 H         1 UNK         0.0769 
    130 H130       32.0427    1.3115   -7.4158 H         1 UNK         0.2981 
    131 H131       34.6498    2.2833   -6.4163 H         1 UNK         0.0541 
    132 H132       31.3306    3.1052   -5.9263 H         1 UNK         0.3459 
    133 H133       31.5823    3.9173   -4.3977 H         1 UNK         0.3459 
    134 H134       34.6690    0.4116   -4.8808 H         1 UNK         0.0612 
    135 H135       34.4224   -0.1441   -6.5122 H         1 UNK         0.0612 
    136 H136       33.4920   -2.4379   -6.1596 H         1 UNK         0.0624 
    137 H137       33.8816   -2.3186   -4.4584 H         1 UNK         0.0624 
@<TRIPOS>BOND
     1    1    2 1    
     2    1   72 1    
     3    1   73 1    
     4    1   74 1    
     5    2    3 2    
     6    2    4 am   BACKBONE|DICT|INTERRES
     7    4    5 1    
     8    4   75 1    
     9    5    6 1    
    10    5   35 1    
    11    5   76 1    
    12    6    7 1    
    13    6   77 1    
    14    6   78 1    
    15    7    8 1    
    16    8    9 1    
    17    8   79 1    
    18    8   80 1    
    19    9   10 ar   
    20    9   14 ar   
    21   10   11 ar   
    22   10   81 1    
    23   11   12 ar   
    24   11   71 1    
    25   12   13 ar   
    26   12   82 1    
    27   13   14 ar   
    28   13   15 1    
    29   14   83 1    
    30   15   16 1    
    31   15   84 1    
    32   15   85 1    
    33   16   17 1    
    34   17   18 1    
    35   17   86 1    
    36   17   87 1    
    37   18   19 1    
    38   18   37 1    
    39   18   88 1    
    40   19   20 am   BACKBONE|DICT|INTERRES
    41   19   89 1    
    42   20   21 2    
    43   20   22 1    
    44   22   23 1    
    45   22   24 1    
    46   22   90 1    
    47   23   91 1    
    48   23   92 1    
    49   23   93 1    
    50   24   25 am   BACKBONE|DICT|INTERRES
    51   24   94 1    
    52   25   26 2    
    53   25   27 1    
    54   27   28 1    
    55   27   29 1    
    56   27   95 1    
    57   28   96 1    
    58   28   97 1    
    59   28   98 1    
    60   29   30 am   BACKBONE|DICT|INTERRES
    61   29   99 1    
    62   30   31 2    
    63   30   32 1    
    64   32   33 1    
    65   32   34 1    
    66   32  100 1    
    67   33  101 1    
    68   33  102 1    
    69   33  103 1    
    70   34   35 am   BACKBONE|DICT|INTERRES
    71   34  104 1    
    72   35   36 2    
    73   37   38 2    
    74   37   39 am   BACKBONE|DICT|INTERRES
    75   39   40 1    
    76   39  105 1    
    77   40   41 1    
    78   40   42 1    
    79   40  106 1    
    80   41  107 1    
    81   41  108 1    
    82   41  109 1    
    83   42   43 2    
    84   42   44 am   BACKBONE|DICT|INTERRES
    85   44   45 1    
    86   44  110 1    
    87   45   46 1    
    88   45   47 1    
    89   45  111 1    
    90   46  112 1    
    91   46  113 1    
    92   46  114 1    
    93   47   48 2    
    94   47   49 am   BACKBONE|DICT|INTERRES
    95   49   50 1    
    96   49  115 1    
    97   50   51 1    
    98   50   52 1    
    99   50  116 1    
   100   51  117 1    
   101   51  118 1    
   102   51  119 1    
   103   52   53 2    
   104   52   54 am   BACKBONE|DICT|INTERRES
   105   54   55 1    
   106   54  120 1    
   107   55   56 1    
   108   55   57 1    
   109   55  121 1    
   110   56  122 1    
   111   56  123 1    
   112   56  124 1    
   113   57   58 2    
   114   57   59 am   BACKBONE|DICT|INTERRES
   115   59   60 1    
   116   59  125 1    
   117   60   61 1    
   118   60   62 1    
   119   60  126 1    
   120   61  127 1    
   121   61  128 1    
   122   61  129 1    
   123   62   63 2    
   124   62   64 am   BACKBONE|DICT|INTERRES
   125   64   65 1    
   126   64  130 1    
   127   65   66 1    
   128   65   69 1    
   129   65  131 1    
   130   66   67 am   BACKBONE|DICT|INTERRES
   131   66   68 2    
   132   67  132 1    
   133   67  133 1    
   134   69   70 1    
   135   69  134 1    
   136   69  135 1    
   137   70   71 1    
   138   71  136 1    
   139   71  137 1    
@<TRIPOS>SUBSTRUCTURE
     1 UNK         1 GROUP             0       ****    0 ROOT    
