@<TRIPOS>MOLECULE
3R137
137   139    1
SMALL
USER_CHARGES


@<TRIPOS>ATOM
      1 CA         28.6359   -7.3799   -3.1850 C.3       0 UNK        -0.2020 
      2 C          27.9578   -6.3432   -2.3016 C.2       0 UNK         0.4855 
      3 O          27.0613   -6.6878   -1.5304 O.2       0 UNK        -0.5197 
      4 N          28.3861   -5.0793   -2.4017 N.am      1 UNK        -0.4892 
      5 CA         27.8085   -3.9417   -1.6763 C.3       1 UNK         0.0835 
      6 C6         28.7687   -2.7302   -1.6459 C.3       12 UNK        -0.0855 
      7 S7         30.3576   -3.1069   -0.8290 S.3       12 UNK        -0.2931 
      8 C8         31.5583   -2.7880   -2.1699 C.3       12 UNK         0.0378 
      9 C9         31.4249   -1.4047   -2.8056 C.ar      12 UNK        -0.0802 
     10 C10        31.5558   -1.2648   -4.1900 C.ar      12 UNK        -0.0944 
     11 C11        31.4258   -0.0121   -4.7971 C.ar      12 UNK        -0.0787 
     12 C12        31.1459    1.1080   -4.0090 C.ar      12 UNK        -0.0862 
     13 C13        30.9670    0.9757   -2.6289 C.ar      12 UNK        -0.0733 
     14 C14        31.1441   -0.2742   -2.0310 C.ar      12 UNK        -0.0832 
     15 C15        30.5416    2.1639   -1.7753 C.3       12 UNK         0.0240 
     16 S16        28.9406    2.8982   -2.2726 S.3       12 UNK        -0.2522 
     17 C17        27.8750    1.4773   -2.7283 C.3       12 UNK        -0.0967 
     18 CA         27.6630    1.4117   -4.2647 C.3       5 UNK         0.0660 
     19 N          27.3884    0.0556   -4.7494 N.am      5 UNK        -0.4015 
     20 C          27.6441   -0.3471   -6.0042 C.2       4 UNK         0.4946 
     21 O          28.1530    0.3733   -6.8624 O.2       4 UNK        -0.5353 
     22 CA         27.2164   -1.7720   -6.3894 C.3       4 UNK         0.0277 
     23 CB         28.2672   -2.7996   -5.9411 C.3       4 UNK        -0.1981 
     24 N          25.8959   -2.1265   -5.8610 N.am      4 UNK        -0.4209 
     25 C          24.7590   -1.5235   -6.2446 C.2       3 UNK         0.4942 
     26 O          24.7118   -0.6446   -7.1037 O.2       3 UNK        -0.5208 
     27 CA         23.4552   -1.9233   -5.5328 C.3       3 UNK         0.0250 
     28 CB         22.7590   -3.0605   -6.2965 C.3       3 UNK        -0.1990 
     29 N          23.6204   -2.3119   -4.1321 N.am      3 UNK        -0.4232 
     30 C          24.2155   -1.5962   -3.1671 C.2       2 UNK         0.4993 
     31 O          24.7206   -0.4841   -3.3403 O.2       2 UNK        -0.5286 
     32 CA         24.3175   -2.2668   -1.7835 C.3       2 UNK         0.0209 
     33 CB         23.2853   -3.3959   -1.5615 C.3       2 UNK        -0.1931 
     34 N          25.6678   -2.7693   -1.4935 N.am      2 UNK        -0.4546 
     35 C          26.4502   -3.5274   -2.2796 C.2       1 UNK         0.5154 
     36 O          26.1610   -3.8607   -3.4337 O.2       1 UNK        -0.5181 
     37 C          26.6045    2.4175   -4.7604 C.2       5 UNK         0.5014 
     38 O          26.9532    3.5686   -5.0243 O.2       5 UNK        -0.5248 
     39 N          25.3476    1.9722   -4.9212 N.am      6 UNK        -0.4434 
     40 CA         24.2692    2.7679   -5.5188 C.3       6 UNK         0.0363 
     41 CB         22.9263    2.0375   -5.3690 C.3       6 UNK        -0.1936 
     42 C          24.5422    3.1160   -6.9944 C.2       6 UNK         0.5081 
     43 O          24.3311    4.2615   -7.3936 O.2       6 UNK        -0.5248 
     44 N          25.0322    2.1357   -7.7676 N.am      7 UNK        -0.4718 
     45 CA         25.5087    2.3243   -9.1408 C.3       7 UNK         0.0273 
     46 CB         25.6404    0.9546   -9.8268 C.3       7 UNK        -0.1935 
     47 C          26.8487    3.0777   -9.2056 C.2       7 UNK         0.5018 
     48 O          27.0730    3.8189  -10.1631 O.2       7 UNK        -0.5186 
     49 N          27.7033    2.8587   -8.1946 N.am      8 UNK        -0.4240 
     50 CA         29.0743    3.3548   -8.0425 C.3       8 UNK         0.0235 
     51 CB         29.0982    4.8899   -7.8856 C.3       8 UNK        -0.2000 
     52 C          29.9897    2.8351   -9.1656 C.2       8 UNK         0.4941 
     53 O          30.7234    3.6140   -9.7782 O.2       8 UNK        -0.5273 
     54 N          29.9071    1.5260   -9.4318 N.am      9 UNK        -0.4262 
     55 CA         30.6276    0.8414  -10.5007 C.3       9 UNK         0.0264 
     56 CB         29.7997    0.9044  -11.7973 C.3       9 UNK        -0.1955 
     57 C          30.8931   -0.6096  -10.0898 C.2       9 UNK         0.5031 
     58 O          30.1613   -1.1494   -9.2570 O.2       9 UNK        -0.5390 
     59 N          31.9258   -1.2088  -10.7026 N.am      10 UNK        -0.4204 
     60 CA         32.4099   -2.5816  -10.4892 C.3       10 UNK         0.0237 
     61 CB         31.3737   -3.6115  -10.9906 C.3       10 UNK        -0.1985 
     62 C          32.8667   -2.8445   -9.0389 C.2       10 UNK         0.4970 
     63 O          32.6162   -3.9234   -8.4977 O.2       10 UNK        -0.4914 
     64 N          33.5141   -1.8410   -8.4331 N.am      11 UNK        -0.4285 
     65 CA         33.9939   -1.8703   -7.0457 C.3       11 UNK         0.1007 
     66 C          35.1884   -2.8406   -6.8312 C.2       11 UNK         0.5703 
     67 N          35.3757   -3.3326   -5.6137 N.am      11 UNK        -0.7361 
     68 O          35.9664   -3.1208   -7.7421 O.2       11 UNK        -0.4986 
     69 C69        34.3287   -0.4493   -6.5117 C.3       12 UNK        -0.0947 
     70 S70        33.0915    0.8524   -6.8606 S.3       12 UNK        -0.2240 
     71 C71        31.5170    0.1248   -6.3091 C.3       12 UNK         0.0194 
     72 H72        29.4179   -6.9406   -3.8041 H         1 UNK         0.0906 
     73 H73        29.0872   -8.1589   -2.5711 H         1 UNK         0.0906 
     74 H74        27.9040   -7.8461   -3.8441 H         1 UNK         0.0906 
     75 H75        29.1159   -4.8522   -3.0599 H         1 UNK         0.3140 
     76 H76        27.6254   -4.2597   -0.6471 H         1 UNK         0.1085 
     77 H77        28.3238   -1.8963   -1.0996 H         1 UNK         0.0836 
     78 H78        28.9426   -2.3606   -2.6565 H         1 UNK         0.0836 
     79 H79        31.4411   -3.5674   -2.9245 H         1 UNK         0.0731 
     80 H80        32.5675   -2.8937   -1.7703 H         1 UNK         0.0731 
     81 H81        31.7380   -2.1401   -4.7953 H         1 UNK         0.1312 
     82 H82        31.0192    2.0753   -4.4758 H         1 UNK         0.1406 
     83 H83        31.0235   -0.3760   -0.9612 H         1 UNK         0.1631 
     84 H84        31.3127    2.9336   -1.8268 H         1 UNK         0.0717 
     85 H85        30.4699    1.8763   -0.7253 H         1 UNK         0.0717 
     86 H86        28.3327    0.5574   -2.3638 H         1 UNK         0.0934 
     87 H87        26.9227    1.5550   -2.1997 H         1 UNK         0.0934 
     88 H88        28.5988    1.7167   -4.7356 H         1 UNK         0.0739 
     89 H89        26.8738   -0.5556   -4.1302 H         1 UNK         0.3093 
     90 H90        27.1585   -1.8092   -7.4797 H         1 UNK         0.0818 
     91 H91        29.2464   -2.5588   -6.3586 H         1 UNK         0.0819 
     92 H92        28.3713   -2.8283   -4.8579 H         1 UNK         0.0819 
     93 H93        28.0089   -3.8033   -6.2788 H         1 UNK         0.0819 
     94 H94        25.8608   -2.8253   -5.1231 H         1 UNK         0.3041 
     95 H95        22.7935   -1.0572   -5.5444 H         1 UNK         0.0784 
     96 H96        22.5995   -2.7885   -7.3411 H         1 UNK         0.0793 
     97 H97        23.3515   -3.9764   -6.2848 H         1 UNK         0.0793 
     98 H98        21.7811   -3.2862   -5.8706 H         1 UNK         0.0793 
     99 H99        23.2881   -3.2326   -3.8847 H         1 UNK         0.3024 
    100 H100       24.1075   -1.4794   -1.0573 H         1 UNK         0.1171 
    101 H101       23.2937   -3.7292   -0.5236 H         1 UNK         0.0786 
    102 H102       22.2709   -3.0554   -1.7753 H         1 UNK         0.0786 
    103 H103       23.4854   -4.2696   -2.1831 H         1 UNK         0.0786 
    104 H104       26.0245   -2.5151   -0.5824 H         1 UNK         0.2977 
    105 H105       25.1177    1.0322   -4.6134 H         1 UNK         0.3127 
    106 H106       24.2075    3.7043   -4.9601 H         1 UNK         0.0770 
    107 H107       22.8744    1.1581   -6.0091 H         1 UNK         0.0814 
    108 H108       22.1003    2.6898   -5.6550 H         1 UNK         0.0814 
    109 H109       22.7513    1.7216   -4.3403 H         1 UNK         0.0814 
    110 H110       25.0928    1.1923   -7.3903 H         1 UNK         0.2983 
    111 H111       24.7677    2.9134   -9.6857 H         1 UNK         0.0947 
    112 H112       26.3611    0.3151   -9.3146 H         1 UNK         0.0806 
    113 H113       25.9759    1.0641  -10.8590 H         1 UNK         0.0806 
    114 H114       24.6856    0.4290   -9.8486 H         1 UNK         0.0806 
    115 H115       27.4392    2.1534   -7.5151 H         1 UNK         0.3000 
    116 H116       29.4521    2.9252   -7.1135 H         1 UNK         0.0850 
    117 H117       28.4494    5.2117   -7.0707 H         1 UNK         0.0810 
    118 H118       28.7742    5.3977   -8.7944 H         1 UNK         0.0810 
    119 H119       30.1050    5.2418   -7.6578 H         1 UNK         0.0810 
    120 H120       29.3390    0.9237   -8.8428 H         1 UNK         0.3040 
    121 H121       31.5913    1.3310  -10.6581 H         1 UNK         0.0766 
    122 H122       30.3109    0.4007  -12.6185 H         1 UNK         0.0812 
    123 H123       29.6270    1.9353  -12.1076 H         1 UNK         0.0812 
    124 H124       28.8267    0.4266  -11.6742 H         1 UNK         0.0812 
    125 H125       32.4510   -0.6682  -11.3769 H         1 UNK         0.3205 
    126 H126       33.3027   -2.6910  -11.1068 H         1 UNK         0.0754 
    127 H127       31.7792   -4.6236  -10.9573 H         1 UNK         0.0769 
    128 H128       31.0851   -3.4137  -12.0229 H         1 UNK         0.0769 
    129 H129       30.4686   -3.6042  -10.3822 H         1 UNK         0.0769 
    130 H130       33.6957   -0.9921   -8.9459 H         1 UNK         0.2981 
    131 H131       33.1739   -2.2683   -6.4507 H         1 UNK         0.0541 
    132 H132       36.1543   -3.9522   -5.4526 H         1 UNK         0.3459 
    133 H133       34.7597   -3.0962   -4.8522 H         1 UNK         0.3459 
    134 H134       34.4775   -0.4822   -5.4309 H         1 UNK         0.0612 
    135 H135       35.2745   -0.1044   -6.9340 H         1 UNK         0.0612 
    136 H136       30.7146    0.7771   -6.6511 H         1 UNK         0.0624 
    137 H137       31.3458   -0.8326   -6.8011 H         1 UNK         0.0624 
@<TRIPOS>BOND
     1    1    2 1    
     2    1   72 1    
     3    1   73 1    
     4    1   74 1    
     5    2    3 2    
     6    2    4 am   BACKBONE|DICT|INTERRES
     7    4    5 1    
     8    4   75 1    
     9    5    6 1    
    10    5   35 1    
    11    5   76 1    
    12    6    7 1    
    13    6   77 1    
    14    6   78 1    
    15    7    8 1    
    16    8    9 1    
    17    8   79 1    
    18    8   80 1    
    19    9   10 ar   
    20    9   14 ar   
    21   10   11 ar   
    22   10   81 1    
    23   11   12 ar   
    24   11   71 1    
    25   12   13 ar   
    26   12   82 1    
    27   13   14 ar   
    28   13   15 1    
    29   14   83 1    
    30   15   16 1    
    31   15   84 1    
    32   15   85 1    
    33   16   17 1    
    34   17   18 1    
    35   17   86 1    
    36   17   87 1    
    37   18   19 1    
    38   18   37 1    
    39   18   88 1    
    40   19   20 am   BACKBONE|DICT|INTERRES
    41   19   89 1    
    42   20   21 2    
    43   20   22 1    
    44   22   23 1    
    45   22   24 1    
    46   22   90 1    
    47   23   91 1    
    48   23   92 1    
    49   23   93 1    
    50   24   25 am   BACKBONE|DICT|INTERRES
    51   24   94 1    
    52   25   26 2    
    53   25   27 1    
    54   27   28 1    
    55   27   29 1    
    56   27   95 1    
    57   28   96 1    
    58   28   97 1    
    59   28   98 1    
    60   29   30 am   BACKBONE|DICT|INTERRES
    61   29   99 1    
    62   30   31 2    
    63   30   32 1    
    64   32   33 1    
    65   32   34 1    
    66   32  100 1    
    67   33  101 1    
    68   33  102 1    
    69   33  103 1    
    70   34   35 am   BACKBONE|DICT|INTERRES
    71   34  104 1    
    72   35   36 2    
    73   37   38 2    
    74   37   39 am   BACKBONE|DICT|INTERRES
    75   39   40 1    
    76   39  105 1    
    77   40   41 1    
    78   40   42 1    
    79   40  106 1    
    80   41  107 1    
    81   41  108 1    
    82   41  109 1    
    83   42   43 2    
    84   42   44 am   BACKBONE|DICT|INTERRES
    85   44   45 1    
    86   44  110 1    
    87   45   46 1    
    88   45   47 1    
    89   45  111 1    
    90   46  112 1    
    91   46  113 1    
    92   46  114 1    
    93   47   48 2    
    94   47   49 am   BACKBONE|DICT|INTERRES
    95   49   50 1    
    96   49  115 1    
    97   50   51 1    
    98   50   52 1    
    99   50  116 1    
   100   51  117 1    
   101   51  118 1    
   102   51  119 1    
   103   52   53 2    
   104   52   54 am   BACKBONE|DICT|INTERRES
   105   54   55 1    
   106   54  120 1    
   107   55   56 1    
   108   55   57 1    
   109   55  121 1    
   110   56  122 1    
   111   56  123 1    
   112   56  124 1    
   113   57   58 2    
   114   57   59 am   BACKBONE|DICT|INTERRES
   115   59   60 1    
   116   59  125 1    
   117   60   61 1    
   118   60   62 1    
   119   60  126 1    
   120   61  127 1    
   121   61  128 1    
   122   61  129 1    
   123   62   63 2    
   124   62   64 am   BACKBONE|DICT|INTERRES
   125   64   65 1    
   126   64  130 1    
   127   65   66 1    
   128   65   69 1    
   129   65  131 1    
   130   66   67 am   BACKBONE|DICT|INTERRES
   131   66   68 2    
   132   67  132 1    
   133   67  133 1    
   134   69   70 1    
   135   69  134 1    
   136   69  135 1    
   137   70   71 1    
   138   71  136 1    
   139   71  137 1    
@<TRIPOS>SUBSTRUCTURE
     1 UNK         1 GROUP             0       ****    0 ROOT    
