@<TRIPOS>MOLECULE
3R137
137   139    1
SMALL
USER_CHARGES


@<TRIPOS>ATOM
      1 CA         26.1054   -4.8604   -8.4355 C.3       0 UNK        -0.2020 
      2 C          25.7374   -5.1678   -6.9926 C.2       0 UNK         0.4855 
      3 O          25.2733   -6.2688   -6.6969 O.2       0 UNK        -0.5197 
      4 N          25.9516   -4.2014   -6.0907 N.am      1 UNK        -0.4892 
      5 CA         25.7466   -4.3273   -4.6395 C.3       1 UNK         0.0835 
      6 C6         26.3405   -3.1265   -3.8571 C.3       12 UNK        -0.0855 
      7 S7         27.9720   -2.5787   -4.4447 S.3       12 UNK        -0.2931 
      8 C8         29.1115   -3.4325   -3.3167 C.3       12 UNK         0.0378 
      9 C9         30.4455   -2.7115   -3.3485 C.ar      12 UNK        -0.0802 
     10 C10        31.3882   -3.0052   -4.3367 C.ar      12 UNK        -0.0944 
     11 C11        32.5504   -2.2386   -4.4663 C.ar      12 UNK        -0.0787 
     12 C12        32.7581   -1.1696   -3.5806 C.ar      12 UNK        -0.0862 
     13 C13        31.8354   -0.8858   -2.5684 C.ar      12 UNK        -0.0733 
     14 C14        30.6919   -1.6778   -2.4446 C.ar      12 UNK        -0.0832 
     15 C15        32.0649    0.2934   -1.6287 C.3       12 UNK         0.0240 
     16 S16        30.6030    1.3770   -1.4632 S.3       12 UNK        -0.2522 
     17 C17        30.3111    1.8986   -3.1888 C.3       12 UNK        -0.0967 
     18 CA         29.0338    1.2718   -3.8079 C.3       5 UNK         0.0660 
     19 N          27.8426    1.5286   -2.9778 N.am      5 UNK        -0.4015 
     20 C          26.5673    1.2127   -3.2526 C.2       4 UNK         0.4946 
     21 O          26.1950    0.7090   -4.3147 O.2       4 UNK        -0.5353 
     22 CA         25.5310    1.5973   -2.1792 C.3       4 UNK         0.0277 
     23 CB         25.4425    3.1274   -2.0304 C.3       4 UNK        -0.1981 
     24 N          24.1949    1.0896   -2.5017 N.am      4 UNK        -0.4209 
     25 C          23.7962   -0.1811   -2.3667 C.2       3 UNK         0.4942 
     26 O          24.4872   -1.0628   -1.8530 O.2       3 UNK        -0.5208 
     27 CA         22.3943   -0.5402   -2.8882 C.3       3 UNK         0.0250 
     28 CB         21.6901    0.5852   -3.6793 C.3       3 UNK        -0.1990 
     29 N          22.5081   -1.7329   -3.7217 N.am      3 UNK        -0.4232 
     30 C          21.5784   -2.6847   -3.8698 C.2       2 UNK         0.4993 
     31 O          20.4773   -2.6575   -3.3184 O.2       2 UNK        -0.5286 
     32 CA         21.9216   -3.8637   -4.8023 C.3       2 UNK         0.0209 
     33 CB         21.1664   -3.7307   -6.1354 C.3       2 UNK        -0.1931 
     34 N          23.3565   -3.9724   -5.0822 N.am      2 UNK        -0.4546 
     35 C          24.2641   -4.4886   -4.2410 C.2       1 UNK         0.5154 
     36 O          23.9748   -5.0296   -3.1731 O.2       1 UNK        -0.5181 
     37 C          28.9063    1.7176   -5.2810 C.2       5 UNK         0.5014 
     38 O          29.5322    1.1137   -6.1548 O.2       5 UNK        -0.5248 
     39 N          28.0849    2.7450   -5.5424 N.am      6 UNK        -0.4434 
     40 CA         27.7259    3.2307   -6.8764 C.3       6 UNK         0.0363 
     41 CB         26.8210    4.4647   -6.7386 C.3       6 UNK        -0.1936 
     42 C          27.0536    2.1706   -7.7699 C.2       6 UNK         0.5081 
     43 O          27.2046    2.2449   -8.9890 O.2       6 UNK        -0.5248 
     44 N          26.3797    1.1748   -7.1714 N.am      7 UNK        -0.4718 
     45 CA         25.7931    0.0304   -7.8795 C.3       7 UNK         0.0273 
     46 CB         24.9039   -0.7716   -6.9151 C.3       7 UNK        -0.1935 
     47 C          26.8444   -0.8860   -8.5342 C.2       7 UNK         0.5018 
     48 O          26.5255   -1.5513   -9.5190 O.2       7 UNK        -0.5186 
     49 N          28.0721   -0.8851   -7.9974 N.am      8 UNK        -0.4240 
     50 CA         29.2473   -1.5534   -8.5599 C.3       8 UNK         0.0235 
     51 CB         29.8674   -2.4572   -7.4816 C.3       8 UNK        -0.2000 
     52 C          30.2705   -0.5306   -9.0897 C.2       8 UNK         0.4941 
     53 O          31.4462   -0.8739   -9.2250 O.2       8 UNK        -0.5273 
     54 N          29.8269    0.7121   -9.3490 N.am      9 UNK        -0.4262 
     55 CA         30.6022    1.8545   -9.8519 C.3       9 UNK         0.0264 
     56 CB         30.9407    1.6444  -11.3429 C.3       9 UNK        -0.1955 
     57 C          31.8496    2.1876   -9.0067 C.2       9 UNK         0.5031 
     58 O          32.8747    2.5838   -9.5657 O.2       9 UNK        -0.5390 
     59 N          31.7625    1.9729   -7.6834 N.am      10 UNK        -0.4204 
     60 CA         32.8489    2.0826   -6.6997 C.3       10 UNK         0.0237 
     61 CB         33.2125    3.5617   -6.4551 C.3       10 UNK        -0.1985 
     62 C          34.0725    1.2035   -7.0394 C.2       10 UNK         0.4970 
     63 O          35.2075    1.5964   -6.7649 O.2       10 UNK        -0.4914 
     64 N          33.8038    0.0377   -7.6422 N.am      11 UNK        -0.4285 
     65 CA         34.7680   -0.9461   -8.1580 C.3       11 UNK         0.1007 
     66 C          35.4592   -0.5170   -9.4883 C.2       11 UNK         0.5703 
     67 N          35.0541    0.5668  -10.1424 N.am      11 UNK        -0.7361 
     68 O          36.3674   -1.1989   -9.9584 O.2       11 UNK        -0.4986 
     69 C69        35.7939   -1.4695   -7.1028 C.3       12 UNK        -0.0947 
     70 S70        35.1943   -1.8844   -5.4208 S.3       12 UNK        -0.2240 
     71 C71        33.5030   -2.5540   -5.6221 C.3       12 UNK         0.0194 
     72 H72        26.8676   -4.0841   -8.4977 H         1 UNK         0.0906 
     73 H73        26.4980   -5.7512   -8.9253 H         1 UNK         0.0906 
     74 H74        25.2273   -4.5257   -8.9872 H         1 UNK         0.0906 
     75 H75        26.3938   -3.3405   -6.3798 H         1 UNK         0.3140 
     76 H76        26.2658   -5.2327   -4.3175 H         1 UNK         0.1085 
     77 H77        26.3893   -3.3498   -2.7896 H         1 UNK         0.0836 
     78 H78        25.6914   -2.2534   -3.9414 H         1 UNK         0.0836 
     79 H79        29.2240   -4.4740   -3.6216 H         1 UNK         0.0731 
     80 H80        28.7097   -3.4382   -2.3024 H         1 UNK         0.0731 
     81 H81        31.1877   -3.7998   -5.0425 H         1 UNK         0.1312 
     82 H82        33.6299   -0.5395   -3.6806 H         1 UNK         0.1406 
     83 H83        29.9591   -1.4463   -1.6835 H         1 UNK         0.1631 
     84 H84        32.9092    0.8983   -1.9631 H         1 UNK         0.0717 
     85 H85        32.3313   -0.0903   -0.6432 H         1 UNK         0.0717 
     86 H86        30.2468    2.9886   -3.2003 H         1 UNK         0.0934 
     87 H87        31.1889    1.6458   -3.7854 H         1 UNK         0.0934 
     88 H88        29.1596    0.1888   -3.8337 H         1 UNK         0.0739 
     89 H89        28.0444    1.9393   -2.0774 H         1 UNK         0.3093 
     90 H90        25.8498    1.1648   -1.2283 H         1 UNK         0.0818 
     91 H91        26.3933    3.5559   -1.7116 H         1 UNK         0.0819 
     92 H92        25.1654    3.6097   -2.9689 H         1 UNK         0.0819 
     93 H93        24.7029    3.4090   -1.2804 H         1 UNK         0.0819 
     94 H94        23.5743    1.7319   -2.9714 H         1 UNK         0.3041 
     95 H95        21.7914   -0.7755   -2.0086 H         1 UNK         0.0784 
     96 H96        21.5371    1.4722   -3.0633 H         1 UNK         0.0793 
     97 H97        22.2585    0.8783   -4.5633 H         1 UNK         0.0793 
     98 H98        20.7035    0.2665   -4.0168 H         1 UNK         0.0793 
     99 H99        23.4047   -1.8655   -4.1655 H         1 UNK         0.3024 
    100 H100       21.5890   -4.7786   -4.3060 H         1 UNK         0.1171 
    101 H101       21.4547   -2.8281   -6.6759 H         1 UNK         0.0786 
    102 H102       21.3537   -4.5864   -6.7846 H         1 UNK         0.0786 
    103 H103       20.0891   -3.6815   -5.9705 H         1 UNK         0.0786 
    104 H104       23.6863   -3.5859   -5.9545 H         1 UNK         0.2977 
    105 H105       27.6080    3.1757   -4.7645 H         1 UNK         0.3127 
    106 H106       28.6496    3.5352   -7.3730 H         1 UNK         0.0770 
    107 H107       25.8898    4.2266   -6.2227 H         1 UNK         0.0814 
    108 H108       26.5571    4.8659   -7.7183 H         1 UNK         0.0814 
    109 H109       27.3177    5.2635   -6.1876 H         1 UNK         0.0814 
    110 H110       26.3226    1.1520   -6.1542 H         1 UNK         0.2983 
    111 H111       25.1619    0.4222   -8.6801 H         1 UNK         0.0947 
    112 H112       24.4183   -1.6020   -7.4293 H         1 UNK         0.0806 
    113 H113       25.4844   -1.1851   -6.0911 H         1 UNK         0.0806 
    114 H114       24.1178   -0.1479   -6.4888 H         1 UNK         0.0806 
    115 H115       28.2511   -0.2893   -7.1960 H         1 UNK         0.3000 
    116 H116       28.9638   -2.1801   -9.4077 H         1 UNK         0.0850 
    117 H117       30.1877   -1.8734   -6.6179 H         1 UNK         0.0810 
    118 H118       30.7389   -2.9929   -7.8598 H         1 UNK         0.0810 
    119 H119       29.1565   -3.2077   -7.1373 H         1 UNK         0.0810 
    120 H120       28.8436    0.9050   -9.1942 H         1 UNK         0.3040 
    121 H121       29.9479    2.7244   -9.7790 H         1 UNK         0.0766 
    122 H122       31.6340    0.8143  -11.4842 H         1 UNK         0.0812 
    123 H123       30.0447    1.4371  -11.9278 H         1 UNK         0.0812 
    124 H124       31.4054    2.5337  -11.7705 H         1 UNK         0.0812 
    125 H125       30.8825    1.6184   -7.3092 H         1 UNK         0.3205 
    126 H126       32.4515    1.6810   -5.7676 H         1 UNK         0.0754 
    127 H127       33.9274    3.6603   -5.6373 H         1 UNK         0.0769 
    128 H128       32.3325    4.1460   -6.1863 H         1 UNK         0.0769 
    129 H129       33.6619    4.0175   -7.3380 H         1 UNK         0.0769 
    130 H130       32.8434   -0.1556   -7.9053 H         1 UNK         0.2981 
    131 H131       34.1570   -1.7982   -8.4552 H         1 UNK         0.0541 
    132 H132       35.5106    0.8148  -11.0052 H         1 UNK         0.3459 
    133 H133       34.3053    1.1504   -9.7859 H         1 UNK         0.3459 
    134 H134       36.5904   -0.7350   -6.9726 H         1 UNK         0.0612 
    135 H135       36.2857   -2.3632   -7.4904 H         1 UNK         0.0612 
    136 H136       33.5886   -3.6352   -5.7398 H         1 UNK         0.0624 
    137 H137       33.0322   -2.1902   -6.5313 H         1 UNK         0.0624 
@<TRIPOS>BOND
     1    1    2 1    
     2    1   72 1    
     3    1   73 1    
     4    1   74 1    
     5    2    3 2    
     6    2    4 am   BACKBONE|DICT|INTERRES
     7    4    5 1    
     8    4   75 1    
     9    5    6 1    
    10    5   35 1    
    11    5   76 1    
    12    6    7 1    
    13    6   77 1    
    14    6   78 1    
    15    7    8 1    
    16    8    9 1    
    17    8   79 1    
    18    8   80 1    
    19    9   10 ar   
    20    9   14 ar   
    21   10   11 ar   
    22   10   81 1    
    23   11   12 ar   
    24   11   71 1    
    25   12   13 ar   
    26   12   82 1    
    27   13   14 ar   
    28   13   15 1    
    29   14   83 1    
    30   15   16 1    
    31   15   84 1    
    32   15   85 1    
    33   16   17 1    
    34   17   18 1    
    35   17   86 1    
    36   17   87 1    
    37   18   19 1    
    38   18   37 1    
    39   18   88 1    
    40   19   20 am   BACKBONE|DICT|INTERRES
    41   19   89 1    
    42   20   21 2    
    43   20   22 1    
    44   22   23 1    
    45   22   24 1    
    46   22   90 1    
    47   23   91 1    
    48   23   92 1    
    49   23   93 1    
    50   24   25 am   BACKBONE|DICT|INTERRES
    51   24   94 1    
    52   25   26 2    
    53   25   27 1    
    54   27   28 1    
    55   27   29 1    
    56   27   95 1    
    57   28   96 1    
    58   28   97 1    
    59   28   98 1    
    60   29   30 am   BACKBONE|DICT|INTERRES
    61   29   99 1    
    62   30   31 2    
    63   30   32 1    
    64   32   33 1    
    65   32   34 1    
    66   32  100 1    
    67   33  101 1    
    68   33  102 1    
    69   33  103 1    
    70   34   35 am   BACKBONE|DICT|INTERRES
    71   34  104 1    
    72   35   36 2    
    73   37   38 2    
    74   37   39 am   BACKBONE|DICT|INTERRES
    75   39   40 1    
    76   39  105 1    
    77   40   41 1    
    78   40   42 1    
    79   40  106 1    
    80   41  107 1    
    81   41  108 1    
    82   41  109 1    
    83   42   43 2    
    84   42   44 am   BACKBONE|DICT|INTERRES
    85   44   45 1    
    86   44  110 1    
    87   45   46 1    
    88   45   47 1    
    89   45  111 1    
    90   46  112 1    
    91   46  113 1    
    92   46  114 1    
    93   47   48 2    
    94   47   49 am   BACKBONE|DICT|INTERRES
    95   49   50 1    
    96   49  115 1    
    97   50   51 1    
    98   50   52 1    
    99   50  116 1    
   100   51  117 1    
   101   51  118 1    
   102   51  119 1    
   103   52   53 2    
   104   52   54 am   BACKBONE|DICT|INTERRES
   105   54   55 1    
   106   54  120 1    
   107   55   56 1    
   108   55   57 1    
   109   55  121 1    
   110   56  122 1    
   111   56  123 1    
   112   56  124 1    
   113   57   58 2    
   114   57   59 am   BACKBONE|DICT|INTERRES
   115   59   60 1    
   116   59  125 1    
   117   60   61 1    
   118   60   62 1    
   119   60  126 1    
   120   61  127 1    
   121   61  128 1    
   122   61  129 1    
   123   62   63 2    
   124   62   64 am   BACKBONE|DICT|INTERRES
   125   64   65 1    
   126   64  130 1    
   127   65   66 1    
   128   65   69 1    
   129   65  131 1    
   130   66   67 am   BACKBONE|DICT|INTERRES
   131   66   68 2    
   132   67  132 1    
   133   67  133 1    
   134   69   70 1    
   135   69  134 1    
   136   69  135 1    
   137   70   71 1    
   138   71  136 1    
   139   71  137 1    
@<TRIPOS>SUBSTRUCTURE
     1 UNK         1 GROUP             0       ****    0 ROOT    
