@<TRIPOS>MOLECULE
3R137
137   139    1
SMALL
USER_CHARGES


@<TRIPOS>ATOM
      1 CA         24.4616   -4.0768    1.6102 C.3       0 UNK        -0.2020 
      2 C          24.9743   -2.6478    1.7049 C.2       0 UNK         0.4855 
      3 O          24.4043   -1.8388    2.4368 O.2       0 UNK        -0.5197 
      4 N          26.0442   -2.3281    0.9654 N.am      1 UNK        -0.4892 
      5 CA         26.6689   -0.9981    0.9204 C.3       1 UNK         0.0835 
      6 C6         28.1434   -1.0858    0.4498 C.3       12 UNK        -0.0855 
      7 S7         28.3484   -1.7513   -1.2422 S.3       12 UNK        -0.2931 
      8 C8         29.6946   -2.9522   -1.0061 C.3       12 UNK         0.0378 
      9 C9         30.3126   -3.3295   -2.3431 C.ar      12 UNK        -0.0802 
     10 C10        31.5227   -2.7570   -2.7473 C.ar      12 UNK        -0.0944 
     11 C11        32.0675   -3.0574   -3.9998 C.ar      12 UNK        -0.0787 
     12 C12        31.4041   -3.9555   -4.8423 C.ar      12 UNK        -0.0862 
     13 C13        30.2077   -4.5543   -4.4364 C.ar      12 UNK        -0.0733 
     14 C14        29.6652   -4.2351   -3.1879 C.ar      12 UNK        -0.0832 
     15 C15        29.5039   -5.5633   -5.3291 C.3       12 UNK         0.0240 
     16 S16        28.1262   -4.8082   -6.2432 S.3       12 UNK        -0.2522 
     17 C17        28.9388   -4.2145   -7.7690 C.3       12 UNK        -0.0967 
     18 CA         28.5463   -2.7722   -8.1839 C.3       5 UNK         0.0660 
     19 N          27.1060   -2.5295   -8.0641 N.am      5 UNK        -0.4015 
     20 C          26.4551   -1.4476   -8.5078 C.2       4 UNK         0.4946 
     21 O          26.9887   -0.5435   -9.1519 O.2       4 UNK        -0.5353 
     22 CA         24.9744   -1.3141   -8.1111 C.3       4 UNK         0.0277 
     23 CB         24.0739   -1.8851   -9.2171 C.3       4 UNK        -0.1981 
     24 N          24.6231   -1.9291   -6.8211 N.am      4 UNK        -0.4209 
     25 C          25.1893   -1.6346   -5.6415 C.2       3 UNK         0.4942 
     26 O          26.1461   -0.8680   -5.5140 O.2       3 UNK        -0.5208 
     27 CA         24.6350   -2.3516   -4.4035 C.3       3 UNK         0.0250 
     28 CB         25.4350   -3.6323   -4.1206 C.3       3 UNK        -0.1990 
     29 N          24.7152   -1.4834   -3.2300 N.am      3 UNK        -0.4232 
     30 C          23.8639   -0.4838   -2.9585 C.2       2 UNK         0.4993 
     31 O          22.8881   -0.2148   -3.6611 O.2       2 UNK        -0.5286 
     32 CA         24.1293    0.3296   -1.6784 C.3       2 UNK         0.0209 
     33 CB         22.8318    0.8206   -1.0067 C.3       2 UNK        -0.1931 
     34 N          24.9145   -0.4506   -0.7200 N.am      2 UNK        -0.4546 
     35 C          25.8695    0.0303    0.0851 C.2       1 UNK         0.5154 
     36 O          26.1468    1.2279    0.1716 O.2       1 UNK        -0.5181 
     37 C          29.4199   -1.6980   -7.4952 C.2       5 UNK         0.5014 
     38 O          30.5483   -1.4864   -7.9387 O.2       5 UNK        -0.5248 
     39 N          28.8837   -1.0136   -6.4758 N.am      6 UNK        -0.4434 
     40 CA         29.5067    0.1412   -5.8337 C.3       6 UNK         0.0363 
     41 CB         29.4190   -0.0206   -4.3090 C.3       6 UNK        -0.1936 
     42 C          28.8195    1.4440   -6.2624 C.2       6 UNK         0.5081 
     43 O          29.5059    2.4147   -6.5771 O.2       6 UNK        -0.5248 
     44 N          27.4804    1.4555   -6.2438 N.am      7 UNK        -0.4718 
     45 CA         26.6585    2.6546   -6.4091 C.3       7 UNK         0.0273 
     46 CB         25.2423    2.3683   -5.8822 C.3       7 UNK        -0.1935 
     47 C          26.5984    3.2030   -7.8436 C.2       7 UNK         0.5018 
     48 O          26.4333    4.4140   -7.9999 O.2       7 UNK        -0.5186 
     49 N          26.7040    2.3281   -8.8530 N.am      8 UNK        -0.4240 
     50 CA         26.5857    2.6897  -10.2675 C.3       8 UNK         0.0235 
     51 CB         25.3848    1.9570  -10.8925 C.3       8 UNK        -0.2000 
     52 C          27.8767    2.3849  -11.0351 C.2       8 UNK         0.4941 
     53 O          28.3793    3.2651  -11.7345 O.2       8 UNK        -0.5273 
     54 N          28.3874    1.1519  -10.9088 N.am      9 UNK        -0.4262 
     55 CA         29.5647    0.6785  -11.6452 C.3       9 UNK         0.0264 
     56 CB         29.5898   -0.8571  -11.6353 C.3       9 UNK        -0.1955 
     57 C          30.8945    1.2347  -11.1063 C.2       9 UNK         0.5031 
     58 O          31.8302    1.3911  -11.8925 O.2       9 UNK        -0.5390 
     59 N          30.9357    1.5161   -9.7947 N.am      10 UNK        -0.4204 
     60 CA         32.0784    1.9355   -8.9726 C.3       10 UNK         0.0237 
     61 CB         32.7555    3.2063   -9.5253 C.3       10 UNK        -0.1985 
     62 C          33.1003    0.8082   -8.7343 C.2       10 UNK         0.4970 
     63 O          33.3416   -0.0276   -9.6075 O.2       10 UNK        -0.4914 
     64 N          33.7037    0.8271   -7.5407 N.am      11 UNK        -0.4285 
     65 CA         34.6984   -0.1602   -7.0877 C.3       11 UNK         0.1007 
     66 C          36.1188    0.0209   -7.6991 C.2       11 UNK         0.5703 
     67 N          36.4095    1.1056   -8.4082 N.am      11 UNK        -0.7361 
     68 O          36.9731   -0.8466   -7.5324 O.2       11 UNK        -0.4986 
     69 C69        34.7616   -0.2328   -5.5390 C.3       12 UNK        -0.0947 
     70 S70        33.1467   -0.6441   -4.7989 S.3       12 UNK        -0.2240 
     71 C71        33.3727   -2.4114   -4.4386 C.3       12 UNK         0.0194 
     72 H72        25.0551   -4.6795    0.9229 H         1 UNK         0.0906 
     73 H73        24.4927   -4.5517    2.5904 H         1 UNK         0.0906 
     74 H74        23.4292   -4.0829    1.2616 H         1 UNK         0.0906 
     75 H75        26.4819   -3.0288    0.3829 H         1 UNK         0.3140 
     76 H76        26.6801   -0.6050    1.9398 H         1 UNK         0.1085 
     77 H77        28.6159   -0.1023    0.4898 H         1 UNK         0.0836 
     78 H78        28.7042   -1.7039    1.1527 H         1 UNK         0.0836 
     79 H79        30.4547   -2.5259   -0.3493 H         1 UNK         0.0731 
     80 H80        29.3101   -3.8409   -0.5036 H         1 UNK         0.0731 
     81 H81        32.0287   -2.0525   -2.1013 H         1 UNK         0.1312 
     82 H82        31.8216   -4.1924   -5.8112 H         1 UNK         0.1406 
     83 H83        28.7298   -4.6817   -2.8785 H         1 UNK         0.1631 
     84 H84        29.1072   -6.3717   -4.7130 H         1 UNK         0.0717 
     85 H85        30.2049   -6.0324   -6.0211 H         1 UNK         0.0717 
     86 H86        30.0229   -4.3145   -7.6874 H         1 UNK         0.0934 
     87 H87        28.6504   -4.9018   -8.5660 H         1 UNK         0.0934 
     88 H88        28.7692   -2.6896   -9.2482 H         1 UNK         0.0739 
     89 H89        26.5956   -3.2138   -7.5246 H         1 UNK         0.3093 
     90 H90        24.7658   -0.2462   -8.0266 H         1 UNK         0.0818 
     91 H91        23.0210   -1.6899   -9.0130 H         1 UNK         0.0819 
     92 H92        24.3028   -1.4295  -10.1818 H         1 UNK         0.0819 
     93 H93        24.2018   -2.9627   -9.3275 H         1 UNK         0.0819 
     94 H94        23.8548   -2.5851   -6.8343 H         1 UNK         0.3041 
     95 H95        23.5900   -2.6172   -4.5783 H         1 UNK         0.0784 
     96 H96        25.3652   -4.3302   -4.9557 H         1 UNK         0.0793 
     97 H97        26.4931   -3.4197   -3.9579 H         1 UNK         0.0793 
     98 H98        25.0586   -4.1496   -3.2379 H         1 UNK         0.0793 
     99 H99        25.5462   -1.5740   -2.6638 H         1 UNK         0.3024 
    100 H100       24.7072    1.2018   -1.9933 H         1 UNK         0.1171 
    101 H101       23.0461    1.4177   -0.1202 H         1 UNK         0.0786 
    102 H102       22.2499    1.4481   -1.6830 H         1 UNK         0.0786 
    103 H103       22.1976   -0.0132   -0.7038 H         1 UNK         0.0786 
    104 H104       24.7370   -1.4451   -0.6970 H         1 UNK         0.2977 
    105 H105       27.9356   -1.2274   -6.1813 H         1 UNK         0.3127 
    106 H106       30.5613    0.2105   -6.1075 H         1 UNK         0.0770 
    107 H107       28.3871   -0.0650   -3.9584 H         1 UNK         0.0814 
    108 H108       29.9069    0.8094   -3.7969 H         1 UNK         0.0814 
    109 H109       29.9139   -0.9346   -3.9885 H         1 UNK         0.0814 
    110 H110       26.9891    0.6082   -5.9605 H         1 UNK         0.2983 
    111 H111       27.0929    3.4403   -5.7866 H         1 UNK         0.0947 
    112 H112       24.6138    3.2577   -5.9450 H         1 UNK         0.0806 
    113 H113       25.2624    2.0597   -4.8367 H         1 UNK         0.0806 
    114 H114       24.7495    1.5802   -6.4514 H         1 UNK         0.0806 
    115 H115       26.8604    1.3464   -8.6474 H         1 UNK         0.3000 
    116 H116       26.4022    3.7610  -10.3747 H         1 UNK         0.0850 
    117 H117       25.2710    2.2234  -11.9441 H         1 UNK         0.0810 
    118 H118       24.4556    2.2239  -10.3890 H         1 UNK         0.0810 
    119 H119       25.4907    0.8733  -10.8419 H         1 UNK         0.0810 
    120 H120       27.9004    0.4747  -10.3222 H         1 UNK         0.3040 
    121 H121       29.4657    1.0045  -12.6831 H         1 UNK         0.0766 
    122 H122       29.8001   -1.2418  -10.6388 H         1 UNK         0.0812 
    123 H123       30.3709   -1.2349  -12.2963 H         1 UNK         0.0812 
    124 H124       28.6431   -1.2795  -11.9727 H         1 UNK         0.0812 
    125 H125       30.0931    1.3236   -9.2726 H         1 UNK         0.3205 
    126 H126       31.6512    2.1923   -8.0035 H         1 UNK         0.0754 
    127 H127       33.4826    3.6004   -8.8145 H         1 UNK         0.0769 
    128 H128       32.0262    3.9946   -9.7122 H         1 UNK         0.0769 
    129 H129       33.2893    3.0142  -10.4565 H         1 UNK         0.0769 
    130 H130       33.4669    1.5476   -6.8751 H         1 UNK         0.2981 
    131 H131       34.3604   -1.1384   -7.4360 H         1 UNK         0.0541 
    132 H132       35.7156    1.8195   -8.5582 H         1 UNK         0.3459 
    133 H133       37.3321    1.2057   -8.8011 H         1 UNK         0.3459 
    134 H134       35.0900    0.7232   -5.1276 H         1 UNK         0.0612 
    135 H135       35.4968   -0.9706   -5.2121 H         1 UNK         0.0612 
    136 H136       34.1218   -2.5283   -3.6542 H         1 UNK         0.0624 
    137 H137       33.7670   -2.9097   -5.3257 H         1 UNK         0.0624 
@<TRIPOS>BOND
     1    1    2 1    
     2    1   72 1    
     3    1   73 1    
     4    1   74 1    
     5    2    3 2    
     6    2    4 am   BACKBONE|DICT|INTERRES
     7    4    5 1    
     8    4   75 1    
     9    5    6 1    
    10    5   35 1    
    11    5   76 1    
    12    6    7 1    
    13    6   77 1    
    14    6   78 1    
    15    7    8 1    
    16    8    9 1    
    17    8   79 1    
    18    8   80 1    
    19    9   10 ar   
    20    9   14 ar   
    21   10   11 ar   
    22   10   81 1    
    23   11   12 ar   
    24   11   71 1    
    25   12   13 ar   
    26   12   82 1    
    27   13   14 ar   
    28   13   15 1    
    29   14   83 1    
    30   15   16 1    
    31   15   84 1    
    32   15   85 1    
    33   16   17 1    
    34   17   18 1    
    35   17   86 1    
    36   17   87 1    
    37   18   19 1    
    38   18   37 1    
    39   18   88 1    
    40   19   20 am   BACKBONE|DICT|INTERRES
    41   19   89 1    
    42   20   21 2    
    43   20   22 1    
    44   22   23 1    
    45   22   24 1    
    46   22   90 1    
    47   23   91 1    
    48   23   92 1    
    49   23   93 1    
    50   24   25 am   BACKBONE|DICT|INTERRES
    51   24   94 1    
    52   25   26 2    
    53   25   27 1    
    54   27   28 1    
    55   27   29 1    
    56   27   95 1    
    57   28   96 1    
    58   28   97 1    
    59   28   98 1    
    60   29   30 am   BACKBONE|DICT|INTERRES
    61   29   99 1    
    62   30   31 2    
    63   30   32 1    
    64   32   33 1    
    65   32   34 1    
    66   32  100 1    
    67   33  101 1    
    68   33  102 1    
    69   33  103 1    
    70   34   35 am   BACKBONE|DICT|INTERRES
    71   34  104 1    
    72   35   36 2    
    73   37   38 2    
    74   37   39 am   BACKBONE|DICT|INTERRES
    75   39   40 1    
    76   39  105 1    
    77   40   41 1    
    78   40   42 1    
    79   40  106 1    
    80   41  107 1    
    81   41  108 1    
    82   41  109 1    
    83   42   43 2    
    84   42   44 am   BACKBONE|DICT|INTERRES
    85   44   45 1    
    86   44  110 1    
    87   45   46 1    
    88   45   47 1    
    89   45  111 1    
    90   46  112 1    
    91   46  113 1    
    92   46  114 1    
    93   47   48 2    
    94   47   49 am   BACKBONE|DICT|INTERRES
    95   49   50 1    
    96   49  115 1    
    97   50   51 1    
    98   50   52 1    
    99   50  116 1    
   100   51  117 1    
   101   51  118 1    
   102   51  119 1    
   103   52   53 2    
   104   52   54 am   BACKBONE|DICT|INTERRES
   105   54   55 1    
   106   54  120 1    
   107   55   56 1    
   108   55   57 1    
   109   55  121 1    
   110   56  122 1    
   111   56  123 1    
   112   56  124 1    
   113   57   58 2    
   114   57   59 am   BACKBONE|DICT|INTERRES
   115   59   60 1    
   116   59  125 1    
   117   60   61 1    
   118   60   62 1    
   119   60  126 1    
   120   61  127 1    
   121   61  128 1    
   122   61  129 1    
   123   62   63 2    
   124   62   64 am   BACKBONE|DICT|INTERRES
   125   64   65 1    
   126   64  130 1    
   127   65   66 1    
   128   65   69 1    
   129   65  131 1    
   130   66   67 am   BACKBONE|DICT|INTERRES
   131   66   68 2    
   132   67  132 1    
   133   67  133 1    
   134   69   70 1    
   135   69  134 1    
   136   69  135 1    
   137   70   71 1    
   138   71  136 1    
   139   71  137 1    
@<TRIPOS>SUBSTRUCTURE
     1 UNK         1 GROUP             0       ****    0 ROOT    
