@<TRIPOS>MOLECULE
3R137
137   139    1
SMALL
USER_CHARGES


@<TRIPOS>ATOM
      1 CA         25.2105   -6.4147   -4.9733 C.3       0 UNK        -0.2020 
      2 C          25.3517   -5.5963   -3.6991 C.2       0 UNK         0.4855 
      3 O          24.3593   -5.0532   -3.2124 O.2       0 UNK        -0.5197 
      4 N          26.5802   -5.4973   -3.1692 N.am      1 UNK        -0.4892 
      5 CA         26.9695   -4.7317   -1.9760 C.3       1 UNK         0.0835 
      6 C6         28.4967   -4.8579   -1.7364 C.3       12 UNK        -0.0855 
      7 S7         29.1163   -3.9620   -0.2661 S.3       12 UNK        -0.2931 
      8 C8         30.8483   -3.6192   -0.7289 C.3       12 UNK         0.0378 
      9 C9         30.9698   -2.5920   -1.8488 C.ar      12 UNK        -0.0802 
     10 C10        31.1930   -3.0099   -3.1648 C.ar      12 UNK        -0.0944 
     11 C11        31.3085   -2.0779   -4.1993 C.ar      12 UNK        -0.0787 
     12 C12        31.2129   -0.7159   -3.9090 C.ar      12 UNK        -0.0862 
     13 C13        30.9965   -0.2801   -2.5972 C.ar      12 UNK        -0.0733 
     14 C14        30.8821   -1.2236   -1.5694 C.ar      12 UNK        -0.0832 
     15 C15        30.8981    1.2139   -2.3036 C.3       12 UNK         0.0240 
     16 S16        29.2983    1.7395   -1.5889 S.3       12 UNK        -0.2522 
     17 C17        28.0457    0.7345   -2.4565 C.3       12 UNK        -0.0967 
     18 CA         28.0631    0.8476   -4.0025 C.3       5 UNK         0.0660 
     19 N          27.6087   -0.3977   -4.6214 N.am      5 UNK        -0.4015 
     20 C          27.7072   -0.7124   -5.9181 C.2       4 UNK         0.4946 
     21 O          28.2628   -0.0040   -6.7545 O.2       4 UNK        -0.5353 
     22 CA         27.0239   -2.0150   -6.3660 C.3       4 UNK         0.0277 
     23 CB         27.9422   -3.2300   -6.1607 C.3       4 UNK        -0.1981 
     24 N          25.7595   -2.2296   -5.6603 N.am      4 UNK        -0.4209 
     25 C          24.6477   -1.5104   -5.8685 C.2       3 UNK         0.4942 
     26 O          24.5541   -0.6288   -6.7227 O.2       3 UNK        -0.5208 
     27 CA         23.4569   -1.7936   -4.9369 C.3       3 UNK         0.0250 
     28 CB         22.6266   -2.9772   -5.4571 C.3       3 UNK        -0.1990 
     29 N          23.8749   -2.0466   -3.5539 N.am      3 UNK        -0.4232 
     30 C          24.3834   -1.1012   -2.7484 C.2       2 UNK         0.4993 
     31 O          24.5137    0.0756   -3.0808 O.2       2 UNK        -0.5286 
     32 CA         24.8855   -1.5374   -1.3603 C.3       2 UNK         0.0209 
     33 CB         23.7458   -1.4717   -0.3318 C.3       2 UNK        -0.1931 
     34 N          25.4934   -2.8710   -1.3336 N.am      2 UNK        -0.4546 
     35 C          26.5201   -3.2620   -2.1015 C.2       1 UNK         0.5154 
     36 O          27.0673   -2.5341   -2.9297 O.2       1 UNK        -0.5181 
     37 C          27.2851    2.0758   -4.5149 C.2       5 UNK         0.5014 
     38 O          27.9023    3.1053   -4.7892 O.2       5 UNK        -0.5248 
     39 N          25.9596    1.9391   -4.6767 N.am      6 UNK        -0.4434 
     40 CA         25.0860    2.9477   -5.2826 C.3       6 UNK         0.0363 
     41 CB         23.6146    2.5479   -5.0899 C.3       6 UNK        -0.1936 
     42 C          25.3933    3.1894   -6.7706 C.2       6 UNK         0.5081 
     43 O          25.3669    4.3398   -7.2091 O.2       6 UNK        -0.5248 
     44 N          25.6973    2.1153   -7.5154 N.am      7 UNK        -0.4718 
     45 CA         26.1658    2.1844   -8.9040 C.3       7 UNK         0.0273 
     46 CB         26.1194    0.7835   -9.5353 C.3       7 UNK        -0.1935 
     47 C          27.5789    2.7839   -9.0222 C.2       7 UNK         0.5018 
     48 O          27.8597    3.4853   -9.9950 O.2       7 UNK        -0.5186 
     49 N          28.4374    2.4855   -8.0365 N.am      8 UNK        -0.4240 
     50 CA         29.8249    2.9167   -7.8268 C.3       8 UNK         0.0235 
     51 CB         29.9405    4.4495   -7.7279 C.3       8 UNK        -0.2000 
     52 C          30.8176    2.3390   -8.8461 C.2       8 UNK         0.4941 
     53 O          31.8409    1.7851   -8.4421 O.2       8 UNK        -0.5273 
     54 N          30.4836    2.4358  -10.1405 N.am      9 UNK        -0.4262 
     55 CA         31.2697    1.9613  -11.2854 C.3       9 UNK         0.0264 
     56 CB         30.5305    2.3163  -12.5850 C.3       9 UNK        -0.1955 
     57 C          31.6023    0.4589  -11.2499 C.2       9 UNK         0.5031 
     58 O          32.6270    0.0583  -11.8032 O.2       9 UNK        -0.5390 
     59 N          30.7704   -0.3302  -10.5547 N.am      10 UNK        -0.4204 
     60 CA         30.9709   -1.7522  -10.2620 C.3       10 UNK         0.0237 
     61 CB         29.7535   -2.2687   -9.4781 C.3       10 UNK        -0.1985 
     62 C          32.2732   -2.0655   -9.4967 C.2       10 UNK         0.4970 
     63 O          32.7897   -3.1744   -9.6384 O.2       10 UNK        -0.4914 
     64 N          32.7809   -1.0929   -8.7288 N.am      11 UNK        -0.4285 
     65 CA         34.0725   -1.1380   -8.0280 C.3       11 UNK         0.1007 
     66 C          35.0084    0.0262   -8.4697 C.2       11 UNK         0.5703 
     67 N          34.8160    0.6221   -9.6422 N.am      11 UNK        -0.7361 
     68 O          35.9459    0.3822   -7.7593 O.2       11 UNK        -0.4986 
     69 C69        33.8818   -1.2322   -6.4875 C.3       12 UNK        -0.0947 
     70 S70        33.2703   -2.8754   -5.9825 S.3       12 UNK        -0.2240 
     71 C71        31.5180   -2.5496   -5.6298 C.3       12 UNK         0.0194 
     72 H72        24.4414   -7.1761   -4.8459 H         1 UNK         0.0906 
     73 H73        24.9188   -5.7713   -5.8028 H         1 UNK         0.0906 
     74 H74        26.1401   -6.9155   -5.2431 H         1 UNK         0.0906 
     75 H75        27.3416   -5.9674   -3.6375 H         1 UNK         0.3140 
     76 H76        26.4567   -5.1782   -1.1217 H         1 UNK         0.1085 
     77 H77        29.0273   -4.5096   -2.6219 H         1 UNK         0.0836 
     78 H78        28.7672   -5.9085   -1.6202 H         1 UNK         0.0836 
     79 H79        31.3370   -4.5534   -1.0101 H         1 UNK         0.0731 
     80 H80        31.3795   -3.2556    0.1519 H         1 UNK         0.0731 
     81 H81        31.2739   -4.0648   -3.3884 H         1 UNK         0.1312 
     82 H82        31.3007    0.0049   -4.7102 H         1 UNK         0.1406 
     83 H83        30.7119   -0.8918   -0.5540 H         1 UNK         0.1631 
     84 H84        31.0752    1.7959   -3.2094 H         1 UNK         0.0717 
     85 H85        31.6949    1.4903   -1.6120 H         1 UNK         0.0717 
     86 H86        28.2210   -0.2978   -2.1508 H         1 UNK         0.0934 
     87 H87        27.0613    0.9831   -2.0557 H         1 UNK         0.0934 
     88 H88        29.0893    0.9847   -4.3396 H         1 UNK         0.0739 
     89 H89        27.2289   -1.1029   -3.9917 H         1 UNK         0.3093 
     90 H90        26.8071   -1.9299   -7.4330 H         1 UNK         0.0818 
     91 H91        28.2739   -3.3259   -5.1264 H         1 UNK         0.0819 
     92 H92        27.4439   -4.1578   -6.4417 H         1 UNK         0.0819 
     93 H93        28.8331   -3.1463   -6.7808 H         1 UNK         0.0819 
     94 H94        25.7769   -2.8770   -4.8850 H         1 UNK         0.3041 
     95 H95        22.8185   -0.9074   -4.9397 H         1 UNK         0.0784 
     96 H96        22.2753   -2.7892   -6.4727 H         1 UNK         0.0793 
     97 H97        23.2037   -3.9017   -5.4781 H         1 UNK         0.0793 
     98 H98        21.7465   -3.1466   -4.8365 H         1 UNK         0.0793 
     99 H99        23.8452   -3.0078   -3.2278 H         1 UNK         0.3024 
    100 H100       25.6570   -0.8256   -1.0599 H         1 UNK         0.1171 
    101 H101       24.1083   -1.6724    0.6767 H         1 UNK         0.0786 
    102 H102       23.2894   -0.4807   -0.3181 H         1 UNK         0.0786 
    103 H103       22.9570   -2.1910   -0.5559 H         1 UNK         0.0786 
    104 H104       25.0705   -3.5456   -0.7121 H         1 UNK         0.2977 
    105 H105       25.5054    1.0976   -4.3288 H         1 UNK         0.3127 
    106 H106       25.2529    3.8890   -4.7546 H         1 UNK         0.0770 
    107 H107       23.3885    1.5952   -5.5694 H         1 UNK         0.0814 
    108 H108       22.9472    3.2963   -5.5191 H         1 UNK         0.0814 
    109 H109       23.3635    2.4580   -4.0329 H         1 UNK         0.0814 
    110 H110       25.6221    1.1937   -7.0984 H         1 UNK         0.2983 
    111 H111       25.4851    2.8328   -9.4599 H         1 UNK         0.0947 
    112 H112       26.4207    0.8177  -10.5831 H         1 UNK         0.0806 
    113 H113       25.1125    0.3668   -9.5004 H         1 UNK         0.0806 
    114 H114       26.7855    0.0861   -9.0271 H         1 UNK         0.0806 
    115 H115       28.1262    1.7836   -7.3688 H         1 UNK         0.3000 
    116 H116       30.1051    2.5072   -6.8546 H         1 UNK         0.0850 
    117 H117       30.9593    4.7461   -7.4758 H         1 UNK         0.0810 
    118 H118       29.2858    4.8417   -6.9492 H         1 UNK         0.0810 
    119 H119       29.6812    4.9438   -8.6645 H         1 UNK         0.0810 
    120 H120       29.6000    2.8977  -10.3466 H         1 UNK         0.3040 
    121 H121       32.2188    2.5009  -11.2701 H         1 UNK         0.0766 
    122 H122       30.3789    3.3923  -12.6742 H         1 UNK         0.0812 
    123 H123       29.5532    1.8346  -12.6378 H         1 UNK         0.0812 
    124 H124       31.1001    1.9976  -13.4593 H         1 UNK         0.0812 
    125 H125       29.9640    0.1055  -10.1323 H         1 UNK         0.3205 
    126 H126       31.0199   -2.2807  -11.2162 H         1 UNK         0.0754 
    127 H127       29.8655   -3.3248   -9.2279 H         1 UNK         0.0769 
    128 H128       28.8350   -2.1700  -10.0572 H         1 UNK         0.0769 
    129 H129       29.6208   -1.7216   -8.5441 H         1 UNK         0.0769 
    130 H130       32.3136   -0.1921   -8.6926 H         1 UNK         0.2981 
    131 H131       34.6204   -2.0283   -8.3408 H         1 UNK         0.0541 
    132 H132       34.0813    0.3191  -10.2685 H         1 UNK         0.3459 
    133 H133       35.4342    1.3682   -9.9173 H         1 UNK         0.3459 
    134 H134       34.8287   -1.0873   -5.9653 H         1 UNK         0.0612 
    135 H135       33.2158   -0.4461   -6.1301 H         1 UNK         0.0612 
    136 H136       30.9646   -3.4755   -5.7890 H         1 UNK         0.0624 
    137 H137       31.1176   -1.8269   -6.3426 H         1 UNK         0.0624 
@<TRIPOS>BOND
     1    1    2 1    
     2    1   72 1    
     3    1   73 1    
     4    1   74 1    
     5    2    3 2    
     6    2    4 am   BACKBONE|DICT|INTERRES
     7    4    5 1    
     8    4   75 1    
     9    5    6 1    
    10    5   35 1    
    11    5   76 1    
    12    6    7 1    
    13    6   77 1    
    14    6   78 1    
    15    7    8 1    
    16    8    9 1    
    17    8   79 1    
    18    8   80 1    
    19    9   10 ar   
    20    9   14 ar   
    21   10   11 ar   
    22   10   81 1    
    23   11   12 ar   
    24   11   71 1    
    25   12   13 ar   
    26   12   82 1    
    27   13   14 ar   
    28   13   15 1    
    29   14   83 1    
    30   15   16 1    
    31   15   84 1    
    32   15   85 1    
    33   16   17 1    
    34   17   18 1    
    35   17   86 1    
    36   17   87 1    
    37   18   19 1    
    38   18   37 1    
    39   18   88 1    
    40   19   20 am   BACKBONE|DICT|INTERRES
    41   19   89 1    
    42   20   21 2    
    43   20   22 1    
    44   22   23 1    
    45   22   24 1    
    46   22   90 1    
    47   23   91 1    
    48   23   92 1    
    49   23   93 1    
    50   24   25 am   BACKBONE|DICT|INTERRES
    51   24   94 1    
    52   25   26 2    
    53   25   27 1    
    54   27   28 1    
    55   27   29 1    
    56   27   95 1    
    57   28   96 1    
    58   28   97 1    
    59   28   98 1    
    60   29   30 am   BACKBONE|DICT|INTERRES
    61   29   99 1    
    62   30   31 2    
    63   30   32 1    
    64   32   33 1    
    65   32   34 1    
    66   32  100 1    
    67   33  101 1    
    68   33  102 1    
    69   33  103 1    
    70   34   35 am   BACKBONE|DICT|INTERRES
    71   34  104 1    
    72   35   36 2    
    73   37   38 2    
    74   37   39 am   BACKBONE|DICT|INTERRES
    75   39   40 1    
    76   39  105 1    
    77   40   41 1    
    78   40   42 1    
    79   40  106 1    
    80   41  107 1    
    81   41  108 1    
    82   41  109 1    
    83   42   43 2    
    84   42   44 am   BACKBONE|DICT|INTERRES
    85   44   45 1    
    86   44  110 1    
    87   45   46 1    
    88   45   47 1    
    89   45  111 1    
    90   46  112 1    
    91   46  113 1    
    92   46  114 1    
    93   47   48 2    
    94   47   49 am   BACKBONE|DICT|INTERRES
    95   49   50 1    
    96   49  115 1    
    97   50   51 1    
    98   50   52 1    
    99   50  116 1    
   100   51  117 1    
   101   51  118 1    
   102   51  119 1    
   103   52   53 2    
   104   52   54 am   BACKBONE|DICT|INTERRES
   105   54   55 1    
   106   54  120 1    
   107   55   56 1    
   108   55   57 1    
   109   55  121 1    
   110   56  122 1    
   111   56  123 1    
   112   56  124 1    
   113   57   58 2    
   114   57   59 am   BACKBONE|DICT|INTERRES
   115   59   60 1    
   116   59  125 1    
   117   60   61 1    
   118   60   62 1    
   119   60  126 1    
   120   61  127 1    
   121   61  128 1    
   122   61  129 1    
   123   62   63 2    
   124   62   64 am   BACKBONE|DICT|INTERRES
   125   64   65 1    
   126   64  130 1    
   127   65   66 1    
   128   65   69 1    
   129   65  131 1    
   130   66   67 am   BACKBONE|DICT|INTERRES
   131   66   68 2    
   132   67  132 1    
   133   67  133 1    
   134   69   70 1    
   135   69  134 1    
   136   69  135 1    
   137   70   71 1    
   138   71  136 1    
   139   71  137 1    
@<TRIPOS>SUBSTRUCTURE
     1 UNK         1 GROUP             0       ****    0 ROOT    
