@<TRIPOS>MOLECULE
3R137
137   139    1
SMALL
USER_CHARGES


@<TRIPOS>ATOM
      1 CA         23.2807   -7.2094   -3.9852 C.3       0 UNK        -0.2020 
      2 C          24.5564   -6.4767   -3.5993 C.2       0 UNK         0.4855 
      3 O          25.0392   -6.6329   -2.4769 O.2       0 UNK        -0.5197 
      4 N          25.1078   -5.6696   -4.5155 N.am      1 UNK        -0.4892 
      5 CA         26.3118   -4.8575   -4.3125 C.3       1 UNK         0.0835 
      6 C6         27.0237   -4.5850   -5.6689 C.3       12 UNK        -0.0855 
      7 S7         28.4053   -3.3866   -5.6799 S.3       12 UNK        -0.2931 
      8 C8         29.5848   -4.0199   -4.4421 C.3       12 UNK         0.0378 
      9 C9         30.2340   -2.8432   -3.7329 C.ar      12 UNK        -0.0802 
     10 C10        31.4199   -2.2859   -4.2220 C.ar      12 UNK        -0.0944 
     11 C11        31.9349   -1.1141   -3.6595 C.ar      12 UNK        -0.0787 
     12 C12        31.2653   -0.5105   -2.5920 C.ar      12 UNK        -0.0862 
     13 C13        30.0826   -1.0627   -2.0920 C.ar      12 UNK        -0.0733 
     14 C14        29.5904   -2.2492   -2.6428 C.ar      12 UNK        -0.0832 
     15 C15        29.2917   -0.3280   -1.0185 C.3       12 UNK         0.0240 
     16 S16        27.7137    0.3363   -1.6590 S.3       12 UNK        -0.2522 
     17 C17        28.2216    1.2274   -3.1692 C.3       12 UNK        -0.0967 
     18 CA         27.9609    0.3858   -4.4546 C.3       5 UNK         0.0660 
     19 N          26.5402    0.0994   -4.6839 N.am      5 UNK        -0.4015 
     20 C          25.6146    0.9710   -5.1087 C.2       4 UNK         0.4946 
     21 O          25.8450    2.1636   -5.3179 O.2       4 UNK        -0.5353 
     22 CA         24.2006    0.4335   -5.3689 C.3       4 UNK         0.0277 
     23 CB         24.1379   -0.2786   -6.7295 C.3       4 UNK        -0.1981 
     24 N          23.7484   -0.4913   -4.3269 N.am      4 UNK        -0.4209 
     25 C          22.5841   -0.3912   -3.6681 C.2       3 UNK         0.4942 
     26 O          21.7841    0.5316   -3.8301 O.2       3 UNK        -0.5208 
     27 CA         22.2156   -1.5154   -2.6780 C.3       3 UNK         0.0250 
     28 CB         21.1861   -2.4672   -3.3100 C.3       3 UNK        -0.1990 
     29 N          23.3643   -2.2997   -2.2246 N.am      3 UNK        -0.4232 
     30 C          24.3066   -1.8582   -1.3822 C.2       2 UNK         0.4993 
     31 O          24.2446   -0.7746   -0.8014 O.2       2 UNK        -0.5286 
     32 CA         25.5299   -2.7665   -1.1522 C.3       2 UNK         0.0209 
     33 CB         25.4370   -3.4521    0.2206 C.3       2 UNK        -0.1931 
     34 N          25.7733   -3.7918   -2.1769 N.am      2 UNK        -0.4546 
     35 C          25.9488   -3.5993   -3.4923 C.2       1 UNK         0.5154 
     36 O          25.7803   -2.5127   -4.0497 O.2       1 UNK        -0.5181 
     37 C          28.6181    0.9468   -5.7340 C.2       5 UNK         0.5014 
     38 O          28.5770    0.2785   -6.7696 O.2       5 UNK        -0.5248 
     39 N          29.1655    2.1689   -5.6674 N.am      6 UNK        -0.4434 
     40 CA         29.8326    2.8681   -6.7701 C.3       6 UNK         0.0363 
     41 CB         30.4976    4.1419   -6.2237 C.3       6 UNK        -0.1936 
     42 C          28.9311    3.1934   -7.9783 C.2       6 UNK         0.5081 
     43 O          29.4553    3.5412   -9.0366 O.2       6 UNK        -0.5248 
     44 N          27.6035    3.0745   -7.8256 N.am      7 UNK        -0.4718 
     45 CA         26.6501    3.1552   -8.9348 C.3       7 UNK         0.0273 
     46 CB         25.2532    3.4897   -8.3871 C.3       7 UNK        -0.1935 
     47 C          26.6119    1.8727   -9.7908 C.2       7 UNK         0.5018 
     48 O          26.0943    1.9294  -10.9072 O.2       7 UNK        -0.5186 
     49 N          27.1394    0.7535   -9.2714 N.am      8 UNK        -0.4240 
     50 CA         27.2063   -0.5370   -9.9587 C.3       8 UNK         0.0235 
     51 CB         26.4489   -1.6000   -9.1438 C.3       8 UNK        -0.2000 
     52 C          28.6586   -0.9717  -10.1910 C.2       8 UNK         0.4941 
     53 O          29.0115   -1.3058  -11.3232 O.2       8 UNK        -0.5273 
     54 N          29.4670   -0.9877   -9.1248 N.am      9 UNK        -0.4262 
     55 CA         30.8552   -1.4430   -9.1503 C.3       9 UNK         0.0264 
     56 CB         31.2125   -2.0162   -7.7713 C.3       9 UNK        -0.1955 
     57 C          31.8175   -0.3064   -9.5149 C.2       9 UNK         0.5031 
     58 O          31.5724    0.8520   -9.1735 O.2       9 UNK        -0.5390 
     59 N          32.9391   -0.6701  -10.1470 N.am      10 UNK        -0.4204 
     60 CA         34.0610    0.2236  -10.4331 C.3       10 UNK         0.0237 
     61 CB         34.7974   -0.2803  -11.6891 C.3       10 UNK        -0.1985 
     62 C          34.9792    0.3111   -9.2011 C.2       10 UNK         0.4970 
     63 O          36.0694   -0.2638   -9.2036 O.2       10 UNK        -0.4914 
     64 N          34.4970    0.9908   -8.1537 N.am      11 UNK        -0.4285 
     65 CA         35.1854    1.1473   -6.8600 C.3       11 UNK         0.1007 
     66 C          36.4926    1.9931   -6.9032 C.2       11 UNK         0.5703 
     67 N          36.7407    2.7849   -7.9402 N.am      11 UNK        -0.7361 
     68 O          37.2977    1.9248   -5.9774 O.2       11 UNK        -0.4986 
     69 C69        34.2368    1.6836   -5.7556 C.3       12 UNK        -0.0947 
     70 S70        32.7111    0.7069   -5.5580 S.3       12 UNK        -0.2240 
     71 C71        33.1760   -0.4565   -4.2404 C.3       12 UNK         0.0194 
     72 H72        22.4703   -6.9312   -3.3120 H         1 UNK         0.0906 
     73 H73        22.9695   -6.9798   -5.0041 H         1 UNK         0.0906 
     74 H74        23.4304   -8.2862   -3.9112 H         1 UNK         0.0906 
     75 H75        24.6549   -5.5617   -5.4127 H         1 UNK         0.3140 
     76 H76        27.0038   -5.4421   -3.7037 H         1 UNK         0.1085 
     77 H77        27.3922   -5.5253   -6.0820 H         1 UNK         0.0836 
     78 H78        26.2955   -4.2121   -6.3915 H         1 UNK         0.0836 
     79 H79        29.0949   -4.6611   -3.7112 H         1 UNK         0.0731 
     80 H80        30.3361   -4.6351   -4.9395 H         1 UNK         0.0731 
     81 H81        31.9139   -2.7342   -5.0727 H         1 UNK         0.1312 
     82 H82        31.6437    0.4158   -2.1813 H         1 UNK         0.1406 
     83 H83        28.6583   -2.6585   -2.2793 H         1 UNK         0.1631 
     84 H84        29.8757    0.4929   -0.5995 H         1 UNK         0.0717 
     85 H85        29.0818   -1.0088   -0.1924 H         1 UNK         0.0717 
     86 H86        27.6724    2.1699   -3.2057 H         1 UNK         0.0934 
     87 H87        29.2760    1.4899   -3.0704 H         1 UNK         0.0934 
     88 H88        28.4273   -0.5875   -4.3244 H         1 UNK         0.0739 
     89 H89        26.2793   -0.8764   -4.5549 H         1 UNK         0.3093 
     90 H90        23.5430    1.3042   -5.4147 H         1 UNK         0.0818 
     91 H91        23.1119   -0.5360   -6.9922 H         1 UNK         0.0819 
     92 H92        24.5280    0.3534   -7.5276 H         1 UNK         0.0819 
     93 H93        24.7212   -1.2001   -6.7238 H         1 UNK         0.0819 
     94 H94        24.3641   -1.2726   -4.1166 H         1 UNK         0.3041 
     95 H95        21.7568   -1.0448   -1.8057 H         1 UNK         0.0784 
     96 H96        20.2966   -1.9229   -3.6307 H         1 UNK         0.0793 
     97 H97        21.5901   -2.9755   -4.1866 H         1 UNK         0.0793 
     98 H98        20.8591   -3.2275   -2.6003 H         1 UNK         0.0793 
     99 H99        23.4961   -3.2065   -2.6477 H         1 UNK         0.3024 
    100 H100       26.4026   -2.1144   -1.1429 H         1 UNK         0.1171 
    101 H101       25.2874   -2.7201    1.0158 H         1 UNK         0.0786 
    102 H102       26.3513   -3.9976    0.4553 H         1 UNK         0.0786 
    103 H103       24.6046   -4.1558    0.2631 H         1 UNK         0.0786 
    104 H104       25.8119   -4.7509   -1.8485 H         1 UNK         0.2977 
    105 H105       29.1147    2.6696   -4.7931 H         1 UNK         0.3127 
    106 H106       30.6193    2.2087   -7.1392 H         1 UNK         0.0770 
    107 H107       29.7637    4.8356   -5.8118 H         1 UNK         0.0814 
    108 H108       31.0382    4.6682   -7.0115 H         1 UNK         0.0814 
    109 H109       31.2206    3.9072   -5.4420 H         1 UNK         0.0814 
    110 H110       27.2319    2.8042   -6.9213 H         1 UNK         0.2983 
    111 H111       26.9524    3.9721   -9.5941 H         1 UNK         0.0947 
    112 H112       24.5381    3.6233   -9.2000 H         1 UNK         0.0806 
    113 H113       25.2635    4.4146   -7.8103 H         1 UNK         0.0806 
    114 H114       24.8677    2.6995   -7.7444 H         1 UNK         0.0806 
    115 H115       27.5863    0.7987   -8.3597 H         1 UNK         0.3000 
    116 H116       26.7321   -0.4736  -10.9404 H         1 UNK         0.0850 
    117 H117       26.5689   -2.5910   -9.5836 H         1 UNK         0.0810 
    118 H118       26.8052   -1.6553   -8.1138 H         1 UNK         0.0810 
    119 H119       25.3807   -1.3878   -9.1235 H         1 UNK         0.0810 
    120 H120       29.1287   -0.6278   -8.2334 H         1 UNK         0.3040 
    121 H121       30.9602   -2.2408   -9.8890 H         1 UNK         0.0766 
    122 H122       30.6464   -2.9240   -7.5663 H         1 UNK         0.0812 
    123 H123       30.9963   -1.3019   -6.9760 H         1 UNK         0.0812 
    124 H124       32.2705   -2.2728   -7.7040 H         1 UNK         0.0812 
    125 H125       33.0835   -1.6484  -10.3542 H         1 UNK         0.3205 
    126 H126       33.6879    1.2278  -10.6469 H         1 UNK         0.0754 
    127 H127       35.6441    0.3643  -11.9290 H         1 UNK         0.0769 
    128 H128       34.1388   -0.2845  -12.5579 H         1 UNK         0.0769 
    129 H129       35.1840   -1.2919  -11.5578 H         1 UNK         0.0769 
    130 H130       33.5625    1.3755   -8.2163 H         1 UNK         0.2981 
    131 H131       35.4953    0.1460   -6.5546 H         1 UNK         0.0541 
    132 H132       36.0858    2.8499   -8.7024 H         1 UNK         0.3459 
    133 H133       37.5921    3.3239   -7.9572 H         1 UNK         0.3459 
    134 H134       33.9386    2.7080   -5.9859 H         1 UNK         0.0612 
    135 H135       34.7501    1.7307   -4.7934 H         1 UNK         0.0612 
    136 H136       33.7184    0.0696   -3.4535 H         1 UNK         0.0624 
    137 H137       33.8565   -1.2080   -4.6432 H         1 UNK         0.0624 
@<TRIPOS>BOND
     1    1    2 1    
     2    1   72 1    
     3    1   73 1    
     4    1   74 1    
     5    2    3 2    
     6    2    4 am   BACKBONE|DICT|INTERRES
     7    4    5 1    
     8    4   75 1    
     9    5    6 1    
    10    5   35 1    
    11    5   76 1    
    12    6    7 1    
    13    6   77 1    
    14    6   78 1    
    15    7    8 1    
    16    8    9 1    
    17    8   79 1    
    18    8   80 1    
    19    9   10 ar   
    20    9   14 ar   
    21   10   11 ar   
    22   10   81 1    
    23   11   12 ar   
    24   11   71 1    
    25   12   13 ar   
    26   12   82 1    
    27   13   14 ar   
    28   13   15 1    
    29   14   83 1    
    30   15   16 1    
    31   15   84 1    
    32   15   85 1    
    33   16   17 1    
    34   17   18 1    
    35   17   86 1    
    36   17   87 1    
    37   18   19 1    
    38   18   37 1    
    39   18   88 1    
    40   19   20 am   BACKBONE|DICT|INTERRES
    41   19   89 1    
    42   20   21 2    
    43   20   22 1    
    44   22   23 1    
    45   22   24 1    
    46   22   90 1    
    47   23   91 1    
    48   23   92 1    
    49   23   93 1    
    50   24   25 am   BACKBONE|DICT|INTERRES
    51   24   94 1    
    52   25   26 2    
    53   25   27 1    
    54   27   28 1    
    55   27   29 1    
    56   27   95 1    
    57   28   96 1    
    58   28   97 1    
    59   28   98 1    
    60   29   30 am   BACKBONE|DICT|INTERRES
    61   29   99 1    
    62   30   31 2    
    63   30   32 1    
    64   32   33 1    
    65   32   34 1    
    66   32  100 1    
    67   33  101 1    
    68   33  102 1    
    69   33  103 1    
    70   34   35 am   BACKBONE|DICT|INTERRES
    71   34  104 1    
    72   35   36 2    
    73   37   38 2    
    74   37   39 am   BACKBONE|DICT|INTERRES
    75   39   40 1    
    76   39  105 1    
    77   40   41 1    
    78   40   42 1    
    79   40  106 1    
    80   41  107 1    
    81   41  108 1    
    82   41  109 1    
    83   42   43 2    
    84   42   44 am   BACKBONE|DICT|INTERRES
    85   44   45 1    
    86   44  110 1    
    87   45   46 1    
    88   45   47 1    
    89   45  111 1    
    90   46  112 1    
    91   46  113 1    
    92   46  114 1    
    93   47   48 2    
    94   47   49 am   BACKBONE|DICT|INTERRES
    95   49   50 1    
    96   49  115 1    
    97   50   51 1    
    98   50   52 1    
    99   50  116 1    
   100   51  117 1    
   101   51  118 1    
   102   51  119 1    
   103   52   53 2    
   104   52   54 am   BACKBONE|DICT|INTERRES
   105   54   55 1    
   106   54  120 1    
   107   55   56 1    
   108   55   57 1    
   109   55  121 1    
   110   56  122 1    
   111   56  123 1    
   112   56  124 1    
   113   57   58 2    
   114   57   59 am   BACKBONE|DICT|INTERRES
   115   59   60 1    
   116   59  125 1    
   117   60   61 1    
   118   60   62 1    
   119   60  126 1    
   120   61  127 1    
   121   61  128 1    
   122   61  129 1    
   123   62   63 2    
   124   62   64 am   BACKBONE|DICT|INTERRES
   125   64   65 1    
   126   64  130 1    
   127   65   66 1    
   128   65   69 1    
   129   65  131 1    
   130   66   67 am   BACKBONE|DICT|INTERRES
   131   66   68 2    
   132   67  132 1    
   133   67  133 1    
   134   69   70 1    
   135   69  134 1    
   136   69  135 1    
   137   70   71 1    
   138   71  136 1    
   139   71  137 1    
@<TRIPOS>SUBSTRUCTURE
     1 UNK         1 GROUP             0       ****    0 ROOT    
