@<TRIPOS>MOLECULE
3R137
137   139    1
SMALL
USER_CHARGES


@<TRIPOS>ATOM
      1 CA         25.6266   -1.5060   -0.9083 C.3       0 UNK        -0.2020 
      2 C          26.1037   -2.5284    0.1191 C.2       0 UNK         0.4855 
      3 O          25.9510   -2.2932    1.3163 O.2       0 UNK        -0.5197 
      4 N          26.6892   -3.6674   -0.2786 N.am      1 UNK        -0.4892 
      5 CA         26.8885   -4.1405   -1.6553 C.3       1 UNK         0.0835 
      6 C6         28.0662   -5.1508   -1.7279 C.3       12 UNK        -0.0855 
      7 S7         28.9646   -5.0631   -3.3189 S.3       12 UNK        -0.2931 
      8 C8         30.6621   -4.6689   -2.7863 C.3       12 UNK         0.0378 
      9 C9         30.9290   -3.1698   -2.7184 C.ar      12 UNK        -0.0802 
     10 C10        31.7660   -2.5685   -3.6656 C.ar      12 UNK        -0.0944 
     11 C11        32.0858   -1.2115   -3.5691 C.ar      12 UNK        -0.0787 
     12 C12        31.5576   -0.4528   -2.5240 C.ar      12 UNK        -0.0862 
     13 C13        30.6864   -1.0271   -1.5964 C.ar      12 UNK        -0.0733 
     14 C14        30.3832   -2.3897   -1.6915 C.ar      12 UNK        -0.0832 
     15 C15        30.0895   -0.1765   -0.4851 C.3       12 UNK         0.0240 
     16 S16        28.5644    0.6661   -1.0175 S.3       12 UNK        -0.2522 
     17 C17        29.1938    2.0221   -2.0695 C.3       12 UNK        -0.0967 
     18 CA         28.8249    1.8588   -3.5717 C.3       5 UNK         0.0660 
     19 N          27.3663    1.7854   -3.7336 N.am      5 UNK        -0.4015 
     20 C          26.6601    1.4096   -4.8079 C.2       4 UNK         0.4946 
     21 O          27.1384    1.1745   -5.9223 O.2       4 UNK        -0.5353 
     22 CA         25.1391    1.3057   -4.5933 C.3       4 UNK         0.0277 
     23 CB         24.4366    2.5783   -5.0946 C.3       4 UNK        -0.1981 
     24 N          24.5425    0.1267   -5.2322 N.am      4 UNK        -0.4209 
     25 C          24.8913   -1.1406   -4.9705 C.2       3 UNK         0.4942 
     26 O          25.7780   -1.4603   -4.1718 O.2       3 UNK        -0.5208 
     27 CA         24.1047   -2.2427   -5.6974 C.3       3 UNK         0.0250 
     28 CB         24.3400   -2.2258   -7.2164 C.3       3 UNK        -0.1990 
     29 N          24.5593   -3.5129   -5.1535 N.am      3 UNK        -0.4232 
     30 C          23.8652   -4.6452   -5.0168 C.2       2 UNK         0.4993 
     31 O          22.7200   -4.8084   -5.4390 O.2       2 UNK        -0.5286 
     32 CA         24.5774   -5.7902   -4.2718 C.3       2 UNK         0.0209 
     33 CB         25.0908   -6.8434   -5.2673 C.3       2 UNK        -0.1931 
     34 N          25.7038   -5.3124   -3.4590 N.am      2 UNK        -0.4546 
     35 C          25.5853   -4.7134   -2.2667 C.2       1 UNK         0.5154 
     36 O          24.5087   -4.6047   -1.6741 O.2       1 UNK        -0.5181 
     37 C          29.4867    2.9558   -4.4438 C.2       5 UNK         0.5014 
     38 O          30.1794    3.8297   -3.9171 O.2       5 UNK        -0.5248 
     39 N          29.2592    2.9000   -5.7575 N.am      6 UNK        -0.4434 
     40 CA         29.7945    3.7926   -6.7774 C.3       6 UNK         0.0363 
     41 CB         29.0743    5.1605   -6.7287 C.3       6 UNK        -0.1936 
     42 C          29.7037    3.0762   -8.1346 C.2       6 UNK         0.5081 
     43 O          30.0657    1.9018   -8.2305 O.2       6 UNK        -0.5248 
     44 N          29.2141    3.7765   -9.1658 N.am      7 UNK        -0.4718 
     45 CA         29.0849    3.2822  -10.5401 C.3       7 UNK         0.0273 
     46 CB         28.7030    4.4523  -11.4608 C.3       7 UNK        -0.1935 
     47 C          28.0912    2.1188  -10.7123 C.2       7 UNK         0.5018 
     48 O          28.2334    1.3595  -11.6700 O.2       7 UNK        -0.5186 
     49 N          27.1211    1.9856   -9.7951 N.am      8 UNK        -0.4240 
     50 CA         26.1326    0.9034   -9.7926 C.3       8 UNK         0.0235 
     51 CB         24.9669    1.2620   -8.8598 C.3       8 UNK        -0.2000 
     52 C          26.7641   -0.4502   -9.4229 C.2       8 UNK         0.4941 
     53 O          26.5683   -1.4243  -10.1497 O.2       8 UNK        -0.5273 
     54 N          27.5522   -0.4770   -8.3363 N.am      9 UNK        -0.4262 
     55 CA         28.4098   -1.6089   -7.9591 C.3       9 UNK         0.0264 
     56 CB         28.8295   -1.4627   -6.4868 C.3       9 UNK        -0.1955 
     57 C          29.6501   -1.7609   -8.8643 C.2       9 UNK         0.5031 
     58 O          30.2855   -2.8156   -8.8339 O.2       9 UNK        -0.5390 
     59 N          29.9587   -0.7163   -9.6471 N.am      10 UNK        -0.4204 
     60 CA         31.0778   -0.5718  -10.5823 C.3       10 UNK         0.0237 
     61 CB         31.0135   -1.6243  -11.7100 C.3       10 UNK        -0.1985 
     62 C          32.4306   -0.5268   -9.8535 C.2       10 UNK         0.4970 
     63 O          33.3750   -1.2114  -10.2528 O.2       10 UNK        -0.4914 
     64 N          32.4880    0.2797   -8.7872 N.am      11 UNK        -0.4285 
     65 CA         33.6837    0.5064   -7.9650 C.3       11 UNK         0.1007 
     66 C          34.8322    1.2013   -8.7467 C.2       11 UNK         0.5703 
     67 N          36.0799    0.8799   -8.4319 N.am      11 UNK        -0.7361 
     68 O          34.6045    2.0561   -9.6016 O.2       11 UNK        -0.4986 
     69 C69        33.3457    1.3013   -6.6794 C.3       12 UNK        -0.0947 
     70 S70        32.0319    0.5165   -5.6941 S.3       12 UNK        -0.2240 
     71 C71        32.9976   -0.5483   -4.5869 C.3       12 UNK         0.0194 
     72 H72        24.7811   -1.8895   -1.4780 H         1 UNK         0.0906 
     73 H73        25.3068   -0.5887   -0.4147 H         1 UNK         0.0906 
     74 H74        26.4229   -1.2405   -1.6012 H         1 UNK         0.0906 
     75 H75        26.9509   -4.3298    0.4375 H         1 UNK         0.3140 
     76 H76        27.1573   -3.2738   -2.2627 H         1 UNK         0.1085 
     77 H77        27.7285   -6.1766   -1.5637 H         1 UNK         0.0836 
     78 H78        28.7746   -4.9613   -0.9209 H         1 UNK         0.0836 
     79 H79        31.3498   -5.1372   -3.4923 H         1 UNK         0.0731 
     80 H80        30.8783   -5.1294   -1.8214 H         1 UNK         0.0731 
     81 H81        32.1827   -3.1597   -4.4696 H         1 UNK         0.1312 
     82 H82        31.8177    0.5931   -2.4505 H         1 UNK         0.1406 
     83 H83        29.7283   -2.8410   -0.9601 H         1 UNK         0.1631 
     84 H84        30.8157    0.5576   -0.1326 H         1 UNK         0.0717 
     85 H85        29.8548   -0.8045    0.3758 H         1 UNK         0.0717 
     86 H86        28.7837    2.9573   -1.6832 H         1 UNK         0.0934 
     87 H87        30.2722    2.1086   -1.9368 H         1 UNK         0.0934 
     88 H88        29.2355    0.9067   -3.9157 H         1 UNK         0.0739 
     89 H89        26.8527    1.9717   -2.8853 H         1 UNK         0.3093 
     90 H90        24.9472    1.2108   -3.5222 H         1 UNK         0.0818 
     91 H91        24.8235    3.4625   -4.5863 H         1 UNK         0.0819 
     92 H92        24.5832    2.7331   -6.1633 H         1 UNK         0.0819 
     93 H93        23.3638    2.5430   -4.9040 H         1 UNK         0.0819 
     94 H94        23.8117    0.3007   -5.9056 H         1 UNK         0.3041 
     95 H95        23.0427   -2.1108   -5.4799 H         1 UNK         0.0784 
     96 H96        23.9636   -1.3074   -7.6628 H         1 UNK         0.0793 
     97 H97        25.3999   -2.3051   -7.4572 H         1 UNK         0.0793 
     98 H98        23.8258   -3.0526   -7.7065 H         1 UNK         0.0793 
     99 H99        25.4639   -3.4431   -4.7039 H         1 UNK         0.3024 
    100 H100       23.8414   -6.2621   -3.6164 H         1 UNK         0.1171 
    101 H101       25.8304   -6.4263   -5.9521 H         1 UNK         0.0786 
    102 H102       25.5487   -7.6873   -4.7510 H         1 UNK         0.0786 
    103 H103       24.2737   -7.2397   -5.8719 H         1 UNK         0.0786 
    104 H104       26.6299   -5.3955   -3.8609 H         1 UNK         0.2977 
    105 H105       28.6584    2.1488   -6.0956 H         1 UNK         0.3127 
    106 H106       30.8567    3.9463   -6.5770 H         1 UNK         0.0770 
    107 H107       29.4968    5.8615   -7.4495 H         1 UNK         0.0814 
    108 H108       29.1779    5.6274   -5.7492 H         1 UNK         0.0814 
    109 H109       28.0070    5.0646   -6.9326 H         1 UNK         0.0814 
    110 H110       28.9327    4.7326   -9.0019 H         1 UNK         0.2983 
    111 H111       30.0651    2.9121  -10.8492 H         1 UNK         0.0947 
    112 H112       28.6283    4.1246  -12.4989 H         1 UNK         0.0806 
    113 H113       29.4509    5.2449  -11.4281 H         1 UNK         0.0806 
    114 H114       27.7402    4.8853  -11.1863 H         1 UNK         0.0806 
    115 H115       27.0816    2.6520   -9.0380 H         1 UNK         0.3000 
    116 H116       25.7325    0.8186  -10.8057 H         1 UNK         0.0850 
    117 H117       24.5736    2.2558   -9.0739 H         1 UNK         0.0810 
    118 H118       25.2662    1.2355   -7.8137 H         1 UNK         0.0810 
    119 H119       24.1431    0.5603   -8.9875 H         1 UNK         0.0810 
    120 H120       27.5864    0.3337   -7.7258 H         1 UNK         0.3040 
    121 H121       27.8292   -2.5285   -8.0549 H         1 UNK         0.0766 
    122 H122       29.4988   -2.2679   -6.1804 H         1 UNK         0.0812 
    123 H123       27.9659   -1.4930   -5.8232 H         1 UNK         0.0812 
    124 H124       29.3497   -0.5212   -6.3118 H         1 UNK         0.0812 
    125 H125       29.4062    0.1197   -9.5089 H         1 UNK         0.3205 
    126 H126       30.9556    0.4071  -11.0476 H         1 UNK         0.0754 
    127 H127       30.0440   -1.6088  -12.2084 H         1 UNK         0.0769 
    128 H128       31.1838   -2.6345  -11.3366 H         1 UNK         0.0769 
    129 H129       31.7714   -1.4277  -12.4691 H         1 UNK         0.0769 
    130 H130       31.6612    0.8076   -8.5222 H         1 UNK         0.2981 
    131 H131       34.0431   -0.4791   -7.6620 H         1 UNK         0.0541 
    132 H132       36.2795    0.1898   -7.7247 H         1 UNK         0.3459 
    133 H133       36.8387    1.3320   -8.9178 H         1 UNK         0.3459 
    134 H134       33.0086    2.3077   -6.9343 H         1 UNK         0.0612 
    135 H135       34.2316    1.4259   -6.0541 H         1 UNK         0.0612 
    136 H136       33.5321   -1.2941   -5.1771 H         1 UNK         0.0624 
    137 H137       33.7516    0.0463   -4.0692 H         1 UNK         0.0624 
@<TRIPOS>BOND
     1    1    2 1    
     2    1   72 1    
     3    1   73 1    
     4    1   74 1    
     5    2    3 2    
     6    2    4 am   BACKBONE|DICT|INTERRES
     7    4    5 1    
     8    4   75 1    
     9    5    6 1    
    10    5   35 1    
    11    5   76 1    
    12    6    7 1    
    13    6   77 1    
    14    6   78 1    
    15    7    8 1    
    16    8    9 1    
    17    8   79 1    
    18    8   80 1    
    19    9   10 ar   
    20    9   14 ar   
    21   10   11 ar   
    22   10   81 1    
    23   11   12 ar   
    24   11   71 1    
    25   12   13 ar   
    26   12   82 1    
    27   13   14 ar   
    28   13   15 1    
    29   14   83 1    
    30   15   16 1    
    31   15   84 1    
    32   15   85 1    
    33   16   17 1    
    34   17   18 1    
    35   17   86 1    
    36   17   87 1    
    37   18   19 1    
    38   18   37 1    
    39   18   88 1    
    40   19   20 am   BACKBONE|DICT|INTERRES
    41   19   89 1    
    42   20   21 2    
    43   20   22 1    
    44   22   23 1    
    45   22   24 1    
    46   22   90 1    
    47   23   91 1    
    48   23   92 1    
    49   23   93 1    
    50   24   25 am   BACKBONE|DICT|INTERRES
    51   24   94 1    
    52   25   26 2    
    53   25   27 1    
    54   27   28 1    
    55   27   29 1    
    56   27   95 1    
    57   28   96 1    
    58   28   97 1    
    59   28   98 1    
    60   29   30 am   BACKBONE|DICT|INTERRES
    61   29   99 1    
    62   30   31 2    
    63   30   32 1    
    64   32   33 1    
    65   32   34 1    
    66   32  100 1    
    67   33  101 1    
    68   33  102 1    
    69   33  103 1    
    70   34   35 am   BACKBONE|DICT|INTERRES
    71   34  104 1    
    72   35   36 2    
    73   37   38 2    
    74   37   39 am   BACKBONE|DICT|INTERRES
    75   39   40 1    
    76   39  105 1    
    77   40   41 1    
    78   40   42 1    
    79   40  106 1    
    80   41  107 1    
    81   41  108 1    
    82   41  109 1    
    83   42   43 2    
    84   42   44 am   BACKBONE|DICT|INTERRES
    85   44   45 1    
    86   44  110 1    
    87   45   46 1    
    88   45   47 1    
    89   45  111 1    
    90   46  112 1    
    91   46  113 1    
    92   46  114 1    
    93   47   48 2    
    94   47   49 am   BACKBONE|DICT|INTERRES
    95   49   50 1    
    96   49  115 1    
    97   50   51 1    
    98   50   52 1    
    99   50  116 1    
   100   51  117 1    
   101   51  118 1    
   102   51  119 1    
   103   52   53 2    
   104   52   54 am   BACKBONE|DICT|INTERRES
   105   54   55 1    
   106   54  120 1    
   107   55   56 1    
   108   55   57 1    
   109   55  121 1    
   110   56  122 1    
   111   56  123 1    
   112   56  124 1    
   113   57   58 2    
   114   57   59 am   BACKBONE|DICT|INTERRES
   115   59   60 1    
   116   59  125 1    
   117   60   61 1    
   118   60   62 1    
   119   60  126 1    
   120   61  127 1    
   121   61  128 1    
   122   61  129 1    
   123   62   63 2    
   124   62   64 am   BACKBONE|DICT|INTERRES
   125   64   65 1    
   126   64  130 1    
   127   65   66 1    
   128   65   69 1    
   129   65  131 1    
   130   66   67 am   BACKBONE|DICT|INTERRES
   131   66   68 2    
   132   67  132 1    
   133   67  133 1    
   134   69   70 1    
   135   69  134 1    
   136   69  135 1    
   137   70   71 1    
   138   71  136 1    
   139   71  137 1    
@<TRIPOS>SUBSTRUCTURE
     1 UNK         1 GROUP             0       ****    0 ROOT    
