@<TRIPOS>MOLECULE
3R137
137   139    1
SMALL
USER_CHARGES


@<TRIPOS>ATOM
      1 CA         25.5149   -6.1638    1.8454 C.3       0 UNK        -0.2020 
      2 C          26.0094   -4.7469    1.5957 C.2       0 UNK         0.4855 
      3 O          26.0220   -3.9327    2.5190 O.2       0 UNK        -0.5197 
      4 N          26.4213   -4.4486    0.3557 N.am      1 UNK        -0.4892 
      5 CA         26.8978   -3.1284   -0.0763 C.3       1 UNK         0.0835 
      6 C6         27.5988   -3.2204   -1.4558 C.3       12 UNK        -0.0855 
      7 S7         28.4733   -1.6907   -1.9487 S.3       12 UNK        -0.2931 
      8 C8         30.2273   -2.1963   -1.8958 C.3       12 UNK         0.0378 
      9 C9         30.7382   -2.7146   -3.2379 C.ar      12 UNK        -0.0802 
     10 C10        31.8846   -2.1589   -3.8185 C.ar      12 UNK        -0.0944 
     11 C11        32.3821   -2.6550   -5.0282 C.ar      12 UNK        -0.0787 
     12 C12        31.7050   -3.6934   -5.6779 C.ar      12 UNK        -0.0862 
     13 C13        30.5605   -4.2590   -5.1084 C.ar      12 UNK        -0.0733 
     14 C14        30.0960   -3.7750   -3.8839 C.ar      12 UNK        -0.0832 
     15 C15        29.8515   -5.4290   -5.7796 C.3       12 UNK         0.0240 
     16 S16        28.7311   -4.9140   -7.1210 S.3       12 UNK        -0.2522 
     17 C17        27.4438   -3.9537   -6.2442 C.3       12 UNK        -0.0967 
     18 CA         27.0537   -2.6580   -6.9967 C.3       5 UNK         0.0660 
     19 N          25.8465   -2.0351   -6.4429 N.am      5 UNK        -0.4015 
     20 C          25.1538   -1.0691   -7.0638 C.2       4 UNK         0.4946 
     21 O          25.4528   -0.6098   -8.1661 O.2       4 UNK        -0.5353 
     22 CA         23.9330   -0.4976   -6.3261 C.3       4 UNK         0.0277 
     23 CB         22.7378   -1.4593   -6.4247 C.3       4 UNK        -0.1981 
     24 N          24.1654   -0.1475   -4.9212 N.am      4 UNK        -0.4209 
     25 C          25.1183    0.6681   -4.4532 C.2       3 UNK         0.4942 
     26 O          26.0306    1.1159   -5.1455 O.2       3 UNK        -0.5208 
     27 CA         25.0457    1.0892   -2.9733 C.3       3 UNK         0.0250 
     28 CB         24.1724    2.3485   -2.8186 C.3       3 UNK        -0.1990 
     29 N          24.6415    0.0521   -2.0123 N.am      3 UNK        -0.4232 
     30 C          23.4954   -0.6355   -1.9047 C.2       2 UNK         0.4993 
     31 O          22.5592   -0.5273   -2.6987 O.2       2 UNK        -0.5286 
     32 CA         23.3915   -1.6271   -0.7233 C.3       2 UNK         0.0209 
     33 CB         22.1485   -2.5323   -0.8191 C.3       2 UNK        -0.1931 
     34 N          24.5808   -2.4756   -0.5784 N.am      2 UNK        -0.4546 
     35 C          25.7622   -2.0841   -0.0792 C.2       1 UNK         0.5154 
     36 O          25.9706   -0.9466    0.3463 O.2       1 UNK        -0.5181 
     37 C          28.2160   -1.6495   -7.0965 C.2       5 UNK         0.5014 
     38 O          28.8421   -1.5607   -8.1535 O.2       5 UNK        -0.5248 
     39 N          28.4421   -0.8704   -6.0273 N.am      6 UNK        -0.4434 
     40 CA         29.4540    0.1867   -5.9865 C.3       6 UNK         0.0363 
     41 CB         29.5467    0.7859   -4.5747 C.3       6 UNK        -0.1936 
     42 C          29.2021    1.2900   -7.0237 C.2       6 UNK         0.5081 
     43 O          30.1480    1.7235   -7.6779 O.2       6 UNK        -0.5248 
     44 N          27.9360    1.6979   -7.1809 N.am      7 UNK        -0.4718 
     45 CA         27.4920    2.6594   -8.1899 C.3       7 UNK         0.0273 
     46 CB         26.0257    3.0407   -7.9305 C.3       7 UNK        -0.1935 
     47 C          27.6813    2.1428   -9.6256 C.2       7 UNK         0.5018 
     48 O          28.1898    2.8853  -10.4659 O.2       7 UNK        -0.5186 
     49 N          27.2939    0.8833   -9.8767 N.am      8 UNK        -0.4240 
     50 CA         27.4274    0.2175  -11.1754 C.3       8 UNK         0.0235 
     51 CB         26.6559   -1.1121  -11.1611 C.3       8 UNK        -0.2000 
     52 C          28.8897   -0.0098  -11.5913 C.2       8 UNK         0.4941 
     53 O          29.2373    0.2558  -12.7427 O.2       8 UNK        -0.5273 
     54 N          29.7185   -0.4885  -10.6540 N.am      9 UNK        -0.4262 
     55 CA         31.1435   -0.7543  -10.8696 C.3       9 UNK         0.0264 
     56 CB         31.6061   -1.8141   -9.8580 C.3       9 UNK        -0.1955 
     57 C          32.0309    0.5042  -10.7975 C.2       9 UNK         0.5031 
     58 O          33.1964    0.4256  -11.1893 O.2       9 UNK        -0.5390 
     59 N          31.4795    1.6248  -10.3061 N.am      10 UNK        -0.4204 
     60 CA         32.1330    2.9168  -10.0578 C.3       10 UNK         0.0237 
     61 CB         32.6014    3.5710  -11.3755 C.3       10 UNK        -0.1985 
     62 C          33.2439    2.8135   -8.9932 C.2       10 UNK         0.4970 
     63 O          34.3423    3.3403   -9.1837 O.2       10 UNK        -0.4914 
     64 N          32.9303    2.1196   -7.8944 N.am      11 UNK        -0.4285 
     65 CA         33.8086    1.9157   -6.7357 C.3       11 UNK         0.1007 
     66 C          33.9168    3.1895   -5.8559 C.2       11 UNK         0.5703 
     67 N          35.0436    3.3818   -5.1834 N.am      11 UNK        -0.7361 
     68 O          32.9835    3.9833   -5.7463 O.2       11 UNK        -0.4986 
     69 C69        33.3608    0.6921   -5.8937 C.3       12 UNK        -0.0947 
     70 S70        33.4074   -0.8459   -6.8722 S.3       12 UNK        -0.2240 
     71 C71        33.6847   -2.1184   -5.6056 C.3       12 UNK         0.0194 
     72 H72        26.1166   -6.6401    2.6191 H         1 UNK         0.0906 
     73 H73        24.4790   -6.1452    2.1829 H         1 UNK         0.0906 
     74 H74        25.5680   -6.7801    0.9481 H         1 UNK         0.0906 
     75 H75        26.3978   -5.1667   -0.3550 H         1 UNK         0.3140 
     76 H76        27.6373   -2.7938    0.6553 H         1 UNK         0.1085 
     77 H77        28.3139   -4.0427   -1.4262 H         1 UNK         0.0836 
     78 H78        26.8836   -3.4757   -2.2401 H         1 UNK         0.0836 
     79 H79        30.8111   -1.3288   -1.5842 H         1 UNK         0.0731 
     80 H80        30.3819   -2.9535   -1.1261 H         1 UNK         0.0731 
     81 H81        32.4072   -1.3551   -3.3183 H         1 UNK         0.1312 
     82 H82        32.0826   -4.0775   -6.6159 H         1 UNK         0.1406 
     83 H83        29.2272   -4.2316   -3.4368 H         1 UNK         0.1631 
     84 H84        29.2873   -6.0089   -5.0475 H         1 UNK         0.0717 
     85 H85        30.5960   -6.1113   -6.1923 H         1 UNK         0.0717 
     86 H86        26.5708   -4.6015   -6.1498 H         1 UNK         0.0934 
     87 H87        27.7529   -3.7245   -5.2257 H         1 UNK         0.0934 
     88 H88        26.8049   -2.9469   -8.0208 H         1 UNK         0.0739 
     89 H89        25.5348   -2.3476   -5.5356 H         1 UNK         0.3093 
     90 H90        23.6599    0.4282   -6.8365 H         1 UNK         0.0818 
     91 H91        21.8310   -1.0052   -6.0244 H         1 UNK         0.0819 
     92 H92        22.5337   -1.7254   -7.4630 H         1 UNK         0.0819 
     93 H93        22.9158   -2.3858   -5.8777 H         1 UNK         0.0819 
     94 H94        23.4481   -0.4249   -4.2524 H         1 UNK         0.3041 
     95 H95        26.0634    1.3614   -2.6880 H         1 UNK         0.0784 
     96 H96        24.5215    3.1481   -3.4737 H         1 UNK         0.0793 
     97 H97        23.1296    2.1541   -3.0716 H         1 UNK         0.0793 
     98 H98        24.2044    2.7298   -1.7980 H         1 UNK         0.0793 
     99 H99        25.3312   -0.1446   -1.2914 H         1 UNK         0.3024 
    100 H100       23.2894   -1.0210    0.1801 H         1 UNK         0.1171 
    101 H101       21.2332   -1.9398   -0.8570 H         1 UNK         0.0786 
    102 H102       22.0678   -3.1895    0.0471 H         1 UNK         0.0786 
    103 H103       22.1711   -3.1557   -1.7139 H         1 UNK         0.0786 
    104 H104       24.4988   -3.4252   -0.9116 H         1 UNK         0.2977 
    105 H105       27.8560   -0.9688   -5.2120 H         1 UNK         0.3127 
    106 H106       30.4119   -0.2778   -6.2275 H         1 UNK         0.0770 
    107 H107       28.5816    1.1491   -4.2212 H         1 UNK         0.0814 
    108 H108       30.2389    1.6286   -4.5500 H         1 UNK         0.0814 
    109 H109       29.9132    0.0522   -3.8597 H         1 UNK         0.0814 
    110 H110       27.2244    1.3274   -6.5533 H         1 UNK         0.2983 
    111 H111       28.1021    3.5587   -8.0802 H         1 UNK         0.0947 
    112 H112       25.6770    3.7731   -8.6598 H         1 UNK         0.0806 
    113 H113       25.9011    3.4816   -6.9413 H         1 UNK         0.0806 
    114 H114       25.3655    2.1751   -7.9935 H         1 UNK         0.0806 
    115 H115       26.8437    0.3512   -9.1354 H         1 UNK         0.3000 
    116 H116       26.9693    0.8650  -11.9262 H         1 UNK         0.0850 
    117 H117       26.7370   -1.6231  -12.1214 H         1 UNK         0.0810 
    118 H118       25.5951   -0.9516  -10.9677 H         1 UNK         0.0810 
    119 H119       27.0349   -1.7902  -10.3954 H         1 UNK         0.0810 
    120 H120       29.3445   -0.7319   -9.7366 H         1 UNK         0.3040 
    121 H121       31.2715   -1.1735  -11.8698 H         1 UNK         0.0766 
    122 H122       32.6725   -2.0214   -9.9561 H         1 UNK         0.0812 
    123 H123       31.0759   -2.7558  -10.0006 H         1 UNK         0.0812 
    124 H124       31.4267   -1.4882   -8.8340 H         1 UNK         0.0812 
    125 H125       30.5318    1.5552   -9.9568 H         1 UNK         0.3205 
    126 H126       31.3646    3.5620   -9.6289 H         1 UNK         0.0754 
    127 H127       32.9677    4.5829  -11.1988 H         1 UNK         0.0769 
    128 H128       31.7840    3.6430  -12.0930 H         1 UNK         0.0769 
    129 H129       33.4111    3.0106  -11.8437 H         1 UNK         0.0769 
    130 H130       31.9708    1.7961   -7.7936 H         1 UNK         0.2981 
    131 H131       34.8081    1.7041   -7.1215 H         1 UNK         0.0541 
    132 H132       35.1295    4.1961   -4.5954 H         1 UNK         0.3459 
    133 H133       35.8124    2.7337   -5.2562 H         1 UNK         0.3459 
    134 H134       32.3541    0.8352   -5.5026 H         1 UNK         0.0612 
    135 H135       34.0135    0.5731   -5.0273 H         1 UNK         0.0612 
    136 H136       34.2381   -2.9395   -6.0637 H         1 UNK         0.0624 
    137 H137       34.3291   -1.7317   -4.8150 H         1 UNK         0.0624 
@<TRIPOS>BOND
     1    1    2 1    
     2    1   72 1    
     3    1   73 1    
     4    1   74 1    
     5    2    3 2    
     6    2    4 am   BACKBONE|DICT|INTERRES
     7    4    5 1    
     8    4   75 1    
     9    5    6 1    
    10    5   35 1    
    11    5   76 1    
    12    6    7 1    
    13    6   77 1    
    14    6   78 1    
    15    7    8 1    
    16    8    9 1    
    17    8   79 1    
    18    8   80 1    
    19    9   10 ar   
    20    9   14 ar   
    21   10   11 ar   
    22   10   81 1    
    23   11   12 ar   
    24   11   71 1    
    25   12   13 ar   
    26   12   82 1    
    27   13   14 ar   
    28   13   15 1    
    29   14   83 1    
    30   15   16 1    
    31   15   84 1    
    32   15   85 1    
    33   16   17 1    
    34   17   18 1    
    35   17   86 1    
    36   17   87 1    
    37   18   19 1    
    38   18   37 1    
    39   18   88 1    
    40   19   20 am   BACKBONE|DICT|INTERRES
    41   19   89 1    
    42   20   21 2    
    43   20   22 1    
    44   22   23 1    
    45   22   24 1    
    46   22   90 1    
    47   23   91 1    
    48   23   92 1    
    49   23   93 1    
    50   24   25 am   BACKBONE|DICT|INTERRES
    51   24   94 1    
    52   25   26 2    
    53   25   27 1    
    54   27   28 1    
    55   27   29 1    
    56   27   95 1    
    57   28   96 1    
    58   28   97 1    
    59   28   98 1    
    60   29   30 am   BACKBONE|DICT|INTERRES
    61   29   99 1    
    62   30   31 2    
    63   30   32 1    
    64   32   33 1    
    65   32   34 1    
    66   32  100 1    
    67   33  101 1    
    68   33  102 1    
    69   33  103 1    
    70   34   35 am   BACKBONE|DICT|INTERRES
    71   34  104 1    
    72   35   36 2    
    73   37   38 2    
    74   37   39 am   BACKBONE|DICT|INTERRES
    75   39   40 1    
    76   39  105 1    
    77   40   41 1    
    78   40   42 1    
    79   40  106 1    
    80   41  107 1    
    81   41  108 1    
    82   41  109 1    
    83   42   43 2    
    84   42   44 am   BACKBONE|DICT|INTERRES
    85   44   45 1    
    86   44  110 1    
    87   45   46 1    
    88   45   47 1    
    89   45  111 1    
    90   46  112 1    
    91   46  113 1    
    92   46  114 1    
    93   47   48 2    
    94   47   49 am   BACKBONE|DICT|INTERRES
    95   49   50 1    
    96   49  115 1    
    97   50   51 1    
    98   50   52 1    
    99   50  116 1    
   100   51  117 1    
   101   51  118 1    
   102   51  119 1    
   103   52   53 2    
   104   52   54 am   BACKBONE|DICT|INTERRES
   105   54   55 1    
   106   54  120 1    
   107   55   56 1    
   108   55   57 1    
   109   55  121 1    
   110   56  122 1    
   111   56  123 1    
   112   56  124 1    
   113   57   58 2    
   114   57   59 am   BACKBONE|DICT|INTERRES
   115   59   60 1    
   116   59  125 1    
   117   60   61 1    
   118   60   62 1    
   119   60  126 1    
   120   61  127 1    
   121   61  128 1    
   122   61  129 1    
   123   62   63 2    
   124   62   64 am   BACKBONE|DICT|INTERRES
   125   64   65 1    
   126   64  130 1    
   127   65   66 1    
   128   65   69 1    
   129   65  131 1    
   130   66   67 am   BACKBONE|DICT|INTERRES
   131   66   68 2    
   132   67  132 1    
   133   67  133 1    
   134   69   70 1    
   135   69  134 1    
   136   69  135 1    
   137   70   71 1    
   138   71  136 1    
   139   71  137 1    
@<TRIPOS>SUBSTRUCTURE
     1 UNK         1 GROUP             0       ****    0 ROOT    
