@<TRIPOS>MOLECULE
3R137
137   139    1
SMALL
USER_CHARGES


@<TRIPOS>ATOM
      1 CA         23.7997   -4.6171   -0.2448 C.3       0 UNK        -0.2020 
      2 C          25.1102   -3.8968    0.0332 C.2       0 UNK         0.4855 
      3 O          25.2039   -3.1450    1.0047 O.2       0 UNK        -0.5197 
      4 N          26.1253   -4.1117   -0.8136 N.am      1 UNK        -0.4892 
      5 CA         27.4489   -3.4816   -0.7346 C.3       1 UNK         0.0835 
      6 C6         28.5205   -4.3776   -1.4032 C.3       12 UNK        -0.0855 
      7 S7         30.2059   -4.0466   -0.7843 S.3       12 UNK        -0.2931 
      8 C8         31.2061   -5.1189   -1.8677 C.3       12 UNK         0.0378 
      9 C9         31.2227   -4.6038   -3.2990 C.ar      12 UNK        -0.0802 
     10 C10        32.1429   -3.6239   -3.6859 C.ar      12 UNK        -0.0944 
     11 C11        32.1321   -3.1179   -4.9891 C.ar      12 UNK        -0.0787 
     12 C12        31.1725   -3.5815   -5.8934 C.ar      12 UNK        -0.0862 
     13 C13        30.2477   -4.5607   -5.5226 C.ar      12 UNK        -0.0733 
     14 C14        30.3026   -5.0930   -4.2316 C.ar      12 UNK        -0.0832 
     15 C15        29.1982   -5.0306   -6.5262 C.3       12 UNK         0.0240 
     16 S16        27.5018   -5.1086   -5.8490 S.3       12 UNK        -0.2522 
     17 C17        27.2330   -3.4067   -5.2530 C.3       12 UNK        -0.0967 
     18 CA         26.8764   -2.4134   -6.3962 C.3       5 UNK         0.0660 
     19 N          25.5487   -1.8067   -6.2213 N.am      5 UNK        -0.4015 
     20 C          24.9285   -1.0724   -7.1568 C.2       4 UNK         0.4946 
     21 O          25.4057   -0.8263   -8.2633 O.2       4 UNK        -0.5353 
     22 CA         23.5558   -0.4804   -6.7990 C.3       4 UNK         0.0277 
     23 CB         22.4532   -1.5409   -6.9496 C.3       4 UNK        -0.1981 
     24 N          23.4735    0.1313   -5.4691 N.am      4 UNK        -0.4209 
     25 C          24.2837    1.0874   -4.9928 C.2       3 UNK         0.4942 
     26 O          25.2827    1.4976   -5.5824 O.2       3 UNK        -0.5208 
     27 CA         23.9231    1.7185   -3.6367 C.3       3 UNK         0.0250 
     28 CB         22.4974    1.3897   -3.1333 C.3       3 UNK        -0.1990 
     29 N          24.9285    1.4128   -2.6147 N.am      3 UNK        -0.4232 
     30 C          25.2498    0.2010   -2.1402 C.2       2 UNK         0.4993 
     31 O          24.7292   -0.8492   -2.5283 O.2       2 UNK        -0.5286 
     32 CA         26.3114    0.1829   -1.0220 C.3       2 UNK         0.0209 
     33 CB         25.8264    0.9560    0.2186 C.3       2 UNK        -0.1931 
     34 N          26.6451   -1.1786   -0.6059 N.am      2 UNK        -0.4546 
     35 C          27.3911   -2.0428   -1.3023 C.2       1 UNK         0.5154 
     36 O          27.9649   -1.7480   -2.3526 O.2       1 UNK        -0.5181 
     37 C          27.9688   -1.3377   -6.5576 C.2       5 UNK         0.5014 
     38 O          28.7715   -1.4064   -7.4924 O.2       5 UNK        -0.5248 
     39 N          27.9414   -0.3498   -5.6516 N.am      6 UNK        -0.4434 
     40 CA         28.8505    0.7930   -5.6219 C.3       6 UNK         0.0363 
     41 CB         28.6226    1.5989   -4.3339 C.3       6 UNK        -0.1936 
     42 C          28.7353    1.6848   -6.8653 C.2       6 UNK         0.5081 
     43 O          29.7583    2.1526   -7.3654 O.2       6 UNK        -0.5248 
     44 N          27.5029    1.8828   -7.3496 N.am      7 UNK        -0.4718 
     45 CA         27.1966    2.6045   -8.5821 C.3       7 UNK         0.0273 
     46 CB         25.6915    2.9114   -8.6381 C.3       7 UNK        -0.1935 
     47 C          27.6470    1.8423   -9.8381 C.2       7 UNK         0.5018 
     48 O          28.2728    2.4473  -10.7083 O.2       7 UNK        -0.5186 
     49 N          27.3331    0.5391   -9.9114 N.am      8 UNK        -0.4240 
     50 CA         27.6435   -0.3295  -11.0519 C.3       8 UNK         0.0235 
     51 CB         26.9552   -1.6935  -10.8809 C.3       8 UNK        -0.2000 
     52 C          29.1490   -0.5154  -11.2870 C.2       8 UNK         0.4941 
     53 O          29.5966   -0.4119  -12.4299 O.2       8 UNK        -0.5273 
     54 N          29.9031   -0.7738  -10.2101 N.am      9 UNK        -0.4262 
     55 CA         31.3606   -0.9253  -10.2641 C.3       9 UNK         0.0264 
     56 CB         31.8148   -1.7847   -9.0792 C.3       9 UNK        -0.1955 
     57 C          32.1150    0.4148  -10.2626 C.2       9 UNK         0.5031 
     58 O          33.3123    0.4212  -10.5516 O.2       9 UNK        -0.5390 
     59 N          31.4230    1.5061   -9.9025 N.am      10 UNK        -0.4204 
     60 CA         31.9379    2.8641   -9.6902 C.3       10 UNK         0.0237 
     61 CB         32.4995    3.4633  -10.9976 C.3       10 UNK        -0.1985 
     62 C          32.9227    2.9719   -8.5060 C.2       10 UNK         0.4970 
     63 O          33.7041    3.9237   -8.4553 O.2       10 UNK        -0.4914 
     64 N          32.8596    2.0169   -7.5669 N.am      11 UNK        -0.4285 
     65 CA         33.6180    2.0290   -6.3081 C.3       11 UNK         0.1007 
     66 C          32.9905    2.9307   -5.2048 C.2       11 UNK         0.5703 
     67 N          31.7592    3.4074   -5.3576 N.am      11 UNK        -0.7361 
     68 O          33.6431    3.2212   -4.2050 O.2       11 UNK        -0.4986 
     69 C69        33.9415    0.5943   -5.8064 C.3       12 UNK        -0.0947 
     70 S70        32.4802   -0.3973   -5.3482 S.3       12 UNK        -0.2240 
     71 C71        33.1586   -2.0806   -5.4245 C.3       12 UNK         0.0194 
     72 H72        23.0060   -3.8923   -0.4243 H         1 UNK         0.0906 
     73 H73        23.8679   -5.2681   -1.1162 H         1 UNK         0.0906 
     74 H74        23.5174   -5.2271    0.6129 H         1 UNK         0.0906 
     75 H75        25.9777   -4.7127   -1.6122 H         1 UNK         0.3140 
     76 H76        27.7109   -3.3941    0.3228 H         1 UNK         0.1085 
     77 H77        28.3122   -5.4285   -1.1946 H         1 UNK         0.0836 
     78 H78        28.4806   -4.2751   -2.4868 H         1 UNK         0.0836 
     79 H79        32.2251   -5.1615   -1.4802 H         1 UNK         0.0731 
     80 H80        30.8226   -6.1397   -1.8289 H         1 UNK         0.0731 
     81 H81        32.8623   -3.2507   -2.9698 H         1 UNK         0.1312 
     82 H82        31.1400   -3.1749   -6.8902 H         1 UNK         0.1406 
     83 H83        29.5958   -5.8577   -3.9393 H         1 UNK         0.1631 
     84 H84        29.1860   -4.3786   -7.4015 H         1 UNK         0.0717 
     85 H85        29.4775   -6.0218   -6.8854 H         1 UNK         0.0717 
     86 H86        26.4322   -3.4523   -4.5132 H         1 UNK         0.0934 
     87 H87        28.1087   -3.0946   -4.6798 H         1 UNK         0.0934 
     88 H88        26.8405   -2.9552   -7.3441 H         1 UNK         0.0739 
     89 H89        25.0938   -1.9343   -5.3285 H         1 UNK         0.3093 
     90 H90        23.3561    0.3140   -7.5212 H         1 UNK         0.0818 
     91 H91        21.4617   -1.1025   -6.8342 H         1 UNK         0.0819 
     92 H92        22.4869   -2.0013   -7.9382 H         1 UNK         0.0819 
     93 H93        22.5551   -2.3400   -6.2143 H         1 UNK         0.0819 
     94 H94        22.6980   -0.1540   -4.8888 H         1 UNK         0.3041 
     95 H95        23.9671    2.7974   -3.7937 H         1 UNK         0.0784 
     96 H96        21.7438    1.6786   -3.8673 H         1 UNK         0.0793 
     97 H97        22.3619    0.3298   -2.9162 H         1 UNK         0.0793 
     98 H98        22.2738    1.9391   -2.2187 H         1 UNK         0.0793 
     99 H99        25.4279    2.2139   -2.2543 H         1 UNK         0.3024 
    100 H100       27.2161    0.6580   -1.4082 H         1 UNK         0.1171 
    101 H101       26.5692    0.9294    1.0164 H         1 UNK         0.0786 
    102 H102       25.6427    2.0068   -0.0074 H         1 UNK         0.0786 
    103 H103       24.8984    0.5397    0.6136 H         1 UNK         0.0786 
    104 H104       26.1286   -1.5549    0.1828 H         1 UNK         0.2977 
    105 H105       27.2282   -0.3740   -4.9376 H         1 UNK         0.3127 
    106 H106       29.8630    0.3972   -5.6014 H         1 UNK         0.0770 
    107 H107       27.6090    1.9966   -4.2777 H         1 UNK         0.0814 
    108 H108       29.3076    2.4448   -4.2761 H         1 UNK         0.0814 
    109 H109       28.7948    0.9839   -3.4503 H         1 UNK         0.0814 
    110 H110       26.7125    1.5211   -6.8200 H         1 UNK         0.2983 
    111 H111       27.7368    3.5537   -8.5586 H         1 UNK         0.0947 
    112 H112       25.4384    3.4657   -9.5428 H         1 UNK         0.0806 
    113 H113       25.3803    3.5178   -7.7872 H         1 UNK         0.0806 
    114 H114       25.0922    2.0002   -8.6329 H         1 UNK         0.0806 
    115 H115       26.7825    0.1210   -9.1639 H         1 UNK         0.3000 
    116 H116       27.2307    0.1454  -11.9445 H         1 UNK         0.0850 
    117 H117       27.1891   -2.3593  -11.7128 H         1 UNK         0.0810 
    118 H118       25.8708   -1.5872  -10.8484 H         1 UNK         0.0810 
    119 H119       27.2696   -2.1918   -9.9628 H         1 UNK         0.0810 
    120 H120       29.4558   -0.8843   -9.3022 H         1 UNK         0.3040 
    121 H121       31.6316   -1.4503  -11.1828 H         1 UNK         0.0766 
    122 H122       31.3540   -2.7715   -9.1171 H         1 UNK         0.0812 
    123 H123       31.5523   -1.3157   -8.1306 H         1 UNK         0.0812 
    124 H124       32.8959   -1.9306   -9.0858 H         1 UNK         0.0812 
    125 H125       30.4452    1.3842   -9.6736 H         1 UNK         0.3205 
    126 H126       31.0714    3.4636   -9.4072 H         1 UNK         0.0754 
    127 H127       32.7223    4.5242  -10.8778 H         1 UNK         0.0769 
    128 H128       31.7815    3.3752  -11.8130 H         1 UNK         0.0769 
    129 H129       33.4224    2.9721  -11.3070 H         1 UNK         0.0769 
    130 H130       32.1453    1.3085   -7.6472 H         1 UNK         0.2981 
    131 H131       34.5847    2.4879   -6.5239 H         1 UNK         0.0541 
    132 H132       31.2029    3.1416   -6.1604 H         1 UNK         0.3459 
    133 H133       31.3724    4.0061   -4.6466 H         1 UNK         0.3459 
    134 H134       34.6089    0.6363   -4.9439 H         1 UNK         0.0612 
    135 H135       34.4929    0.0601   -6.5818 H         1 UNK         0.0612 
    136 H136       34.0462   -2.1383   -4.7925 H         1 UNK         0.0624 
    137 H137       33.4888   -2.2916   -6.4427 H         1 UNK         0.0624 
@<TRIPOS>BOND
     1    1    2 1    
     2    1   72 1    
     3    1   73 1    
     4    1   74 1    
     5    2    3 2    
     6    2    4 am   BACKBONE|DICT|INTERRES
     7    4    5 1    
     8    4   75 1    
     9    5    6 1    
    10    5   35 1    
    11    5   76 1    
    12    6    7 1    
    13    6   77 1    
    14    6   78 1    
    15    7    8 1    
    16    8    9 1    
    17    8   79 1    
    18    8   80 1    
    19    9   10 ar   
    20    9   14 ar   
    21   10   11 ar   
    22   10   81 1    
    23   11   12 ar   
    24   11   71 1    
    25   12   13 ar   
    26   12   82 1    
    27   13   14 ar   
    28   13   15 1    
    29   14   83 1    
    30   15   16 1    
    31   15   84 1    
    32   15   85 1    
    33   16   17 1    
    34   17   18 1    
    35   17   86 1    
    36   17   87 1    
    37   18   19 1    
    38   18   37 1    
    39   18   88 1    
    40   19   20 am   BACKBONE|DICT|INTERRES
    41   19   89 1    
    42   20   21 2    
    43   20   22 1    
    44   22   23 1    
    45   22   24 1    
    46   22   90 1    
    47   23   91 1    
    48   23   92 1    
    49   23   93 1    
    50   24   25 am   BACKBONE|DICT|INTERRES
    51   24   94 1    
    52   25   26 2    
    53   25   27 1    
    54   27   28 1    
    55   27   29 1    
    56   27   95 1    
    57   28   96 1    
    58   28   97 1    
    59   28   98 1    
    60   29   30 am   BACKBONE|DICT|INTERRES
    61   29   99 1    
    62   30   31 2    
    63   30   32 1    
    64   32   33 1    
    65   32   34 1    
    66   32  100 1    
    67   33  101 1    
    68   33  102 1    
    69   33  103 1    
    70   34   35 am   BACKBONE|DICT|INTERRES
    71   34  104 1    
    72   35   36 2    
    73   37   38 2    
    74   37   39 am   BACKBONE|DICT|INTERRES
    75   39   40 1    
    76   39  105 1    
    77   40   41 1    
    78   40   42 1    
    79   40  106 1    
    80   41  107 1    
    81   41  108 1    
    82   41  109 1    
    83   42   43 2    
    84   42   44 am   BACKBONE|DICT|INTERRES
    85   44   45 1    
    86   44  110 1    
    87   45   46 1    
    88   45   47 1    
    89   45  111 1    
    90   46  112 1    
    91   46  113 1    
    92   46  114 1    
    93   47   48 2    
    94   47   49 am   BACKBONE|DICT|INTERRES
    95   49   50 1    
    96   49  115 1    
    97   50   51 1    
    98   50   52 1    
    99   50  116 1    
   100   51  117 1    
   101   51  118 1    
   102   51  119 1    
   103   52   53 2    
   104   52   54 am   BACKBONE|DICT|INTERRES
   105   54   55 1    
   106   54  120 1    
   107   55   56 1    
   108   55   57 1    
   109   55  121 1    
   110   56  122 1    
   111   56  123 1    
   112   56  124 1    
   113   57   58 2    
   114   57   59 am   BACKBONE|DICT|INTERRES
   115   59   60 1    
   116   59  125 1    
   117   60   61 1    
   118   60   62 1    
   119   60  126 1    
   120   61  127 1    
   121   61  128 1    
   122   61  129 1    
   123   62   63 2    
   124   62   64 am   BACKBONE|DICT|INTERRES
   125   64   65 1    
   126   64  130 1    
   127   65   66 1    
   128   65   69 1    
   129   65  131 1    
   130   66   67 am   BACKBONE|DICT|INTERRES
   131   66   68 2    
   132   67  132 1    
   133   67  133 1    
   134   69   70 1    
   135   69  134 1    
   136   69  135 1    
   137   70   71 1    
   138   71  136 1    
   139   71  137 1    
@<TRIPOS>SUBSTRUCTURE
     1 UNK         1 GROUP             0       ****    0 ROOT    
