@<TRIPOS>MOLECULE
3R137
137   139    1
SMALL
USER_CHARGES


@<TRIPOS>ATOM
      1 CA         28.0327   -4.0496    2.0253 C.3       0 UNK        -0.2020 
      2 C          27.7257   -3.2741    0.7536 C.2       0 UNK         0.4855 
      3 O          27.8501   -3.8274   -0.3391 O.2       0 UNK        -0.5197 
      4 N          27.3325   -1.9998    0.8926 N.am      1 UNK        -0.4892 
      5 CA         26.9716   -1.0439   -0.1663 C.3       1 UNK         0.0835 
      6 C6         28.1157   -0.7500   -1.1759 C.3       12 UNK        -0.0855 
      7 S7         29.5827    0.0426   -0.4221 S.3       12 UNK        -0.2931 
      8 C8         30.8403   -1.2845   -0.3819 C.3       12 UNK         0.0378 
      9 C9         31.2347   -1.7653   -1.7733 C.ar      12 UNK        -0.0802 
     10 C10        32.1350   -1.0374   -2.5612 C.ar      12 UNK        -0.0944 
     11 C11        32.4420   -1.4628   -3.8600 C.ar      12 UNK        -0.0787 
     12 C12        31.8372   -2.6148   -4.3705 C.ar      12 UNK        -0.0862 
     13 C13        30.9211   -3.3310   -3.5992 C.ar      12 UNK        -0.0733 
     14 C14        30.6642   -2.9322   -2.2862 C.ar      12 UNK        -0.0832 
     15 C15        30.0999   -4.4494   -4.2200 C.3       12 UNK         0.0240 
     16 S16        28.9025   -3.8286   -5.4600 S.3       12 UNK        -0.2522 
     17 C17        28.2635   -2.2594   -4.7608 C.3       12 UNK        -0.0967 
     18 CA         28.2109   -1.1384   -5.8261 C.3       5 UNK         0.0660 
     19 N          27.0929   -1.3361   -6.7459 N.am      5 UNK        -0.4015 
     20 C          26.8653   -0.6632   -7.8775 C.2       4 UNK         0.4946 
     21 O          27.6671    0.1349   -8.3669 O.2       4 UNK        -0.5353 
     22 CA         25.5052   -0.8834   -8.5702 C.3       4 UNK         0.0277 
     23 CB         25.5968   -2.0047   -9.6228 C.3       4 UNK        -0.1981 
     24 N          24.3747   -1.0801   -7.6408 N.am      4 UNK        -0.4209 
     25 C          24.1478   -2.1093   -6.8105 C.2       3 UNK         0.4942 
     26 O          24.8410   -3.1283   -6.7743 O.2       3 UNK        -0.5208 
     27 CA         22.9862   -1.9485   -5.8110 C.3       3 UNK         0.0250 
     28 CB         21.7063   -2.5937   -6.3656 C.3       3 UNK        -0.1990 
     29 N          23.3009   -2.5407   -4.5037 N.am      3 UNK        -0.4232 
     30 C          24.3342   -2.1773   -3.7292 C.2       2 UNK         0.4993 
     31 O          25.0773   -1.2309   -3.9997 O.2       2 UNK        -0.5286 
     32 CA         24.6012   -3.0457   -2.4827 C.3       2 UNK         0.0209 
     33 CB         24.9607   -4.4863   -2.8912 C.3       2 UNK        -0.1931 
     34 N          25.6931   -2.5313   -1.6501 N.am      2 UNK        -0.4546 
     35 C          25.6581   -1.4358   -0.8824 C.2       1 UNK         0.5154 
     36 O          24.6450   -0.7566   -0.7088 O.2       1 UNK        -0.5181 
     37 C          28.1566    0.2677   -5.1940 C.2       5 UNK         0.5014 
     38 O          29.1128    1.0283   -5.3321 O.2       5 UNK        -0.5248 
     39 N          27.0222    0.6253   -4.5732 N.am      6 UNK        -0.4434 
     40 CA         26.7826    1.9405   -3.9615 C.3       6 UNK         0.0363 
     41 CB         25.4546    1.9128   -3.1902 C.3       6 UNK        -0.1936 
     42 C          26.7854    3.1088   -4.9637 C.2       6 UNK         0.5081 
     43 O          27.0926    4.2368   -4.5784 O.2       6 UNK        -0.5248 
     44 N          26.4642    2.8176   -6.2310 N.am      7 UNK        -0.4718 
     45 CA         26.5407    3.7603   -7.3495 C.3       7 UNK         0.0273 
     46 CB         25.6106    3.2707   -8.4727 C.3       7 UNK        -0.1935 
     47 C          27.9730    3.9479   -7.8876 C.2       7 UNK         0.5018 
     48 O          28.1755    4.8203   -8.7327 O.2       7 UNK        -0.5186 
     49 N          28.9220    3.1148   -7.4285 N.am      8 UNK        -0.4240 
     50 CA         30.3139    3.0030   -7.8798 C.3       8 UNK         0.0235 
     51 CB         31.1081    4.2923   -7.5824 C.3       8 UNK        -0.2000 
     52 C          30.4502    2.5354   -9.3428 C.2       8 UNK         0.4941 
     53 O          31.4795    2.7892   -9.9699 O.2       8 UNK        -0.5273 
     54 N          29.4223    1.8475   -9.8580 N.am      9 UNK        -0.4262 
     55 CA         29.3827    1.2888  -11.2080 C.3       9 UNK         0.0264 
     56 CB         27.9250    1.2331  -11.6951 C.3       9 UNK        -0.1955 
     57 C          30.0245   -0.1041  -11.2483 C.2       9 UNK         0.5031 
     58 O          30.7281   -0.4171  -12.2092 O.2       9 UNK        -0.5390 
     59 N          29.7807   -0.9089  -10.2039 N.am      10 UNK        -0.4204 
     60 CA         30.3514   -2.2507  -10.0515 C.3       10 UNK         0.0237 
     61 CB         29.4277   -3.0964   -9.1624 C.3       10 UNK        -0.1985 
     62 C          31.7863   -2.2443   -9.4916 C.2       10 UNK         0.4970 
     63 O          32.4760   -3.2569   -9.6190 O.2       10 UNK        -0.4914 
     64 N          32.2070   -1.1330   -8.8724 N.am      11 UNK        -0.4285 
     65 CA         33.5526   -0.9429   -8.3094 C.3       11 UNK         0.1007 
     66 C          34.6577   -0.8866   -9.3995 C.2       11 UNK         0.5703 
     67 N          35.8574   -1.3601   -9.0902 N.am      11 UNK        -0.7361 
     68 O          34.4518   -0.3836  -10.5025 O.2       11 UNK        -0.4986 
     69 C69        33.6263    0.3061   -7.3910 C.3       12 UNK        -0.0947 
     70 S70        32.4316    0.2341   -6.0182 S.3       12 UNK        -0.2240 
     71 C71        33.3789   -0.6619   -4.7493 C.3       12 UNK         0.0194 
     72 H72        29.0653   -4.3972    2.0107 H         1 UNK         0.0906 
     73 H73        27.3813   -4.9200    2.0991 H         1 UNK         0.0906 
     74 H74        27.8918   -3.4428    2.9196 H         1 UNK         0.0906 
     75 H75        27.2410   -1.6296    1.8289 H         1 UNK         0.3140 
     76 H76        26.7566   -0.1057    0.3488 H         1 UNK         0.1085 
     77 H77        27.7605   -0.0696   -1.9501 H         1 UNK         0.0836 
     78 H78        28.4053   -1.6572   -1.6981 H         1 UNK         0.0836 
     79 H79        31.7262   -0.9111    0.1337 H         1 UNK         0.0731 
     80 H80        30.4688   -2.1140    0.2211 H         1 UNK         0.0731 
     81 H81        32.5733   -0.1282   -2.1729 H         1 UNK         0.1312 
     82 H82        32.0265   -2.9134   -5.3929 H         1 UNK         0.1406 
     83 H83        29.9522   -3.4860   -1.6908 H         1 UNK         0.1631 
     84 H84        29.5516   -4.9965   -3.4513 H         1 UNK         0.0717 
     85 H85        30.7648   -5.1715   -4.6956 H         1 UNK         0.0717 
     86 H86        27.2803   -2.4536   -4.3354 H         1 UNK         0.0934 
     87 H87        28.8739   -1.9293   -3.9268 H         1 UNK         0.0934 
     88 H88        29.1358   -1.1718   -6.4055 H         1 UNK         0.0739 
     89 H89        26.3955   -2.0212   -6.4695 H         1 UNK         0.3093 
     90 H90        25.2828    0.0394   -9.1070 H         1 UNK         0.0818 
     91 H91        26.3590   -1.7750  -10.3687 H         1 UNK         0.0819 
     92 H92        25.8604   -2.9654   -9.1799 H         1 UNK         0.0819 
     93 H93        24.6526   -2.1281  -10.1530 H         1 UNK         0.0819 
     94 H94        23.7415   -0.2940   -7.5808 H         1 UNK         0.3041 
     95 H95        22.8035   -0.8834   -5.6531 H         1 UNK         0.0784 
     96 H96        21.4300   -2.1541   -7.3251 H         1 UNK         0.0793 
     97 H97        21.8315   -3.6659   -6.5232 H         1 UNK         0.0793 
     98 H98        20.8626   -2.4489   -5.6904 H         1 UNK         0.0793 
     99 H99        22.7550   -3.3463   -4.2357 H         1 UNK         0.3024 
    100 H100       23.6896   -3.0582   -1.8812 H         1 UNK         0.1171 
    101 H101       25.8438   -4.5134   -3.5317 H         1 UNK         0.0786 
    102 H102       25.1641   -5.1066   -2.0178 H         1 UNK         0.0786 
    103 H103       24.1477   -4.9645   -3.4384 H         1 UNK         0.0786 
    104 H104       26.5515   -3.0723   -1.6312 H         1 UNK         0.2977 
    105 H105       26.2760   -0.0660   -4.4653 H         1 UNK         0.3127 
    106 H106       27.5893    2.1257   -3.2491 H         1 UNK         0.0770 
    107 H107       25.2477    2.8785   -2.7270 H         1 UNK         0.0814 
    108 H108       24.6138    1.6744   -3.8428 H         1 UNK         0.0814 
    109 H109       25.4765    1.1729   -2.3923 H         1 UNK         0.0814 
    110 H110       26.2311    1.8613   -6.4524 H         1 UNK         0.2983 
    111 H111       26.1877    4.7374   -7.0118 H         1 UNK         0.0947 
    112 H112       25.9583    2.3318   -8.9033 H         1 UNK         0.0806 
    113 H113       25.5651    3.9984   -9.2841 H         1 UNK         0.0806 
    114 H114       24.5915    3.1247   -8.1144 H         1 UNK         0.0806 
    115 H115       28.6608    2.4371   -6.7186 H         1 UNK         0.3000 
    116 H116       30.7493    2.2083   -7.2757 H         1 UNK         0.0850 
    117 H117       32.1733    4.1448   -7.7647 H         1 UNK         0.0810 
    118 H118       30.9987    4.5929   -6.5404 H         1 UNK         0.0810 
    119 H119       30.7839    5.1232   -8.2094 H         1 UNK         0.0810 
    120 H120       28.6467    1.6081   -9.2474 H         1 UNK         0.3040 
    121 H121       29.9414    1.9398  -11.8842 H         1 UNK         0.0766 
    122 H122       27.3069    0.5937  -11.0644 H         1 UNK         0.0812 
    123 H123       27.8693    0.8405  -12.7113 H         1 UNK         0.0812 
    124 H124       27.4747    2.2259  -11.7061 H         1 UNK         0.0812 
    125 H125       29.1573   -0.5777   -9.4732 H         1 UNK         0.3205 
    126 H126       30.3926   -2.7270  -11.0336 H         1 UNK         0.0754 
    127 H127       28.4265   -3.1724   -9.5854 H         1 UNK         0.0769 
    128 H128       29.3410   -2.6756   -8.1628 H         1 UNK         0.0769 
    129 H129       29.8094   -4.1125   -9.0532 H         1 UNK         0.0769 
    130 H130       31.5911   -0.3374   -8.8292 H         1 UNK         0.2981 
    131 H131       33.7563   -1.8193   -7.6907 H         1 UNK         0.0541 
    132 H132       36.5918   -1.3181   -9.7796 H         1 UNK         0.3459 
    133 H133       36.0437   -1.7643   -8.1858 H         1 UNK         0.3459 
    134 H134       33.4244    1.2123   -7.9655 H         1 UNK         0.0612 
    135 H135       34.6280    0.4266   -6.9741 H         1 UNK         0.0612 
    136 H136       34.0894   -1.3416   -5.2217 H         1 UNK         0.0624 
    137 H137       33.9653    0.0494   -4.1659 H         1 UNK         0.0624 
@<TRIPOS>BOND
     1    1    2 1    
     2    1   72 1    
     3    1   73 1    
     4    1   74 1    
     5    2    3 2    
     6    2    4 am   BACKBONE|DICT|INTERRES
     7    4    5 1    
     8    4   75 1    
     9    5    6 1    
    10    5   35 1    
    11    5   76 1    
    12    6    7 1    
    13    6   77 1    
    14    6   78 1    
    15    7    8 1    
    16    8    9 1    
    17    8   79 1    
    18    8   80 1    
    19    9   10 ar   
    20    9   14 ar   
    21   10   11 ar   
    22   10   81 1    
    23   11   12 ar   
    24   11   71 1    
    25   12   13 ar   
    26   12   82 1    
    27   13   14 ar   
    28   13   15 1    
    29   14   83 1    
    30   15   16 1    
    31   15   84 1    
    32   15   85 1    
    33   16   17 1    
    34   17   18 1    
    35   17   86 1    
    36   17   87 1    
    37   18   19 1    
    38   18   37 1    
    39   18   88 1    
    40   19   20 am   BACKBONE|DICT|INTERRES
    41   19   89 1    
    42   20   21 2    
    43   20   22 1    
    44   22   23 1    
    45   22   24 1    
    46   22   90 1    
    47   23   91 1    
    48   23   92 1    
    49   23   93 1    
    50   24   25 am   BACKBONE|DICT|INTERRES
    51   24   94 1    
    52   25   26 2    
    53   25   27 1    
    54   27   28 1    
    55   27   29 1    
    56   27   95 1    
    57   28   96 1    
    58   28   97 1    
    59   28   98 1    
    60   29   30 am   BACKBONE|DICT|INTERRES
    61   29   99 1    
    62   30   31 2    
    63   30   32 1    
    64   32   33 1    
    65   32   34 1    
    66   32  100 1    
    67   33  101 1    
    68   33  102 1    
    69   33  103 1    
    70   34   35 am   BACKBONE|DICT|INTERRES
    71   34  104 1    
    72   35   36 2    
    73   37   38 2    
    74   37   39 am   BACKBONE|DICT|INTERRES
    75   39   40 1    
    76   39  105 1    
    77   40   41 1    
    78   40   42 1    
    79   40  106 1    
    80   41  107 1    
    81   41  108 1    
    82   41  109 1    
    83   42   43 2    
    84   42   44 am   BACKBONE|DICT|INTERRES
    85   44   45 1    
    86   44  110 1    
    87   45   46 1    
    88   45   47 1    
    89   45  111 1    
    90   46  112 1    
    91   46  113 1    
    92   46  114 1    
    93   47   48 2    
    94   47   49 am   BACKBONE|DICT|INTERRES
    95   49   50 1    
    96   49  115 1    
    97   50   51 1    
    98   50   52 1    
    99   50  116 1    
   100   51  117 1    
   101   51  118 1    
   102   51  119 1    
   103   52   53 2    
   104   52   54 am   BACKBONE|DICT|INTERRES
   105   54   55 1    
   106   54  120 1    
   107   55   56 1    
   108   55   57 1    
   109   55  121 1    
   110   56  122 1    
   111   56  123 1    
   112   56  124 1    
   113   57   58 2    
   114   57   59 am   BACKBONE|DICT|INTERRES
   115   59   60 1    
   116   59  125 1    
   117   60   61 1    
   118   60   62 1    
   119   60  126 1    
   120   61  127 1    
   121   61  128 1    
   122   61  129 1    
   123   62   63 2    
   124   62   64 am   BACKBONE|DICT|INTERRES
   125   64   65 1    
   126   64  130 1    
   127   65   66 1    
   128   65   69 1    
   129   65  131 1    
   130   66   67 am   BACKBONE|DICT|INTERRES
   131   66   68 2    
   132   67  132 1    
   133   67  133 1    
   134   69   70 1    
   135   69  134 1    
   136   69  135 1    
   137   70   71 1    
   138   71  136 1    
   139   71  137 1    
@<TRIPOS>SUBSTRUCTURE
     1 UNK         1 GROUP             0       ****    0 ROOT    
