@<TRIPOS>MOLECULE
3R137
137   139    1
SMALL
USER_CHARGES


@<TRIPOS>ATOM
      1 CA         25.5628   -3.0480    3.1416 C.3       0 UNK        -0.2020 
      2 C          26.6897   -3.7580    2.3958 C.2       0 UNK         0.4855 
      3 O          27.2642   -4.7034    2.9315 O.2       0 UNK        -0.5197 
      4 N          27.0516   -3.3496    1.1706 N.am      1 UNK        -0.4892 
      5 CA         26.4488   -2.2691    0.3728 C.3       1 UNK         0.0835 
      6 C6         27.3694   -1.8352   -0.7958 C.3       12 UNK        -0.0855 
      7 S7         28.9559   -1.1501   -0.2012 S.3       12 UNK        -0.2931 
      8 C8         30.1158   -2.5327   -0.4603 C.3       12 UNK         0.0378 
      9 C9         30.5877   -2.6186   -1.9042 C.ar      12 UNK        -0.0802 
     10 C10        31.6512   -1.8196   -2.3409 C.ar      12 UNK        -0.0944 
     11 C11        32.0925   -1.8923   -3.6654 C.ar      12 UNK        -0.0787 
     12 C12        31.4808   -2.7864   -4.5451 C.ar      12 UNK        -0.0862 
     13 C13        30.3811   -3.5445   -4.1368 C.ar      12 UNK        -0.0733 
     14 C14        29.9555   -3.4805   -2.8075 C.ar      12 UNK        -0.0832 
     15 C15        29.5975   -4.3457   -5.1663 C.3       12 UNK         0.0240 
     16 S16        28.1698   -3.3958   -5.8023 S.3       12 UNK        -0.2522 
     17 C17        28.9358   -1.7786   -6.1720 C.3       12 UNK        -0.0967 
     18 CA         28.0312   -0.8068   -6.9576 C.3       5 UNK         0.0660 
     19 N          26.7722   -0.5486   -6.2521 N.am      5 UNK        -0.4015 
     20 C          25.7672    0.2252   -6.6788 C.2       4 UNK         0.4946 
     21 O          25.8041    0.8690   -7.7299 O.2       4 UNK        -0.5353 
     22 CA         24.5239    0.2897   -5.7682 C.3       4 UNK         0.0277 
     23 CB         23.3985    1.1581   -6.3599 C.3       4 UNK        -0.1981 
     24 N          23.9857   -1.0402   -5.4635 N.am      4 UNK        -0.4209 
     25 C          24.4884   -1.8902   -4.5598 C.2       3 UNK         0.4942 
     26 O          25.5072   -1.6647   -3.8994 O.2       3 UNK        -0.5208 
     27 CA         23.7540   -3.2238   -4.3948 C.3       3 UNK         0.0250 
     28 CB         24.2610   -4.2582   -5.4136 C.3       3 UNK        -0.1990 
     29 N          23.9992   -3.7167   -3.0438 N.am      3 UNK        -0.4232 
     30 C          23.0689   -4.1727   -2.1987 C.2       2 UNK         0.4993 
     31 O          21.8846   -4.3247   -2.5024 O.2       2 UNK        -0.5286 
     32 CA         23.5221   -4.5254   -0.7690 C.3       2 UNK         0.0209 
     33 CB         23.5837   -6.0512   -0.5860 C.3       2 UNK        -0.1931 
     34 N          24.8131   -3.9492   -0.3732 N.am      2 UNK        -0.4546 
     35 C          25.0462   -2.6466   -0.1501 C.2       1 UNK         0.5154 
     36 O          24.1988   -1.7672   -0.3027 O.2       1 UNK        -0.5181 
     37 C          28.8200    0.4808   -7.2713 C.2       5 UNK         0.5014 
     38 O          29.4153    0.5798   -8.3449 O.2       5 UNK        -0.5248 
     39 N          28.8008    1.4451   -6.3399 N.am      6 UNK        -0.4434 
     40 CA         29.4533    2.7471   -6.4844 C.3       6 UNK         0.0363 
     41 CB         29.5056    3.4501   -5.1194 C.3       6 UNK        -0.1936 
     42 C          28.7747    3.6428   -7.5345 C.2       6 UNK         0.5081 
     43 O          29.4731    4.3612   -8.2483 O.2       6 UNK        -0.5248 
     44 N          27.4396    3.5627   -7.6428 N.am      7 UNK        -0.4718 
     45 CA         26.6531    4.2688   -8.6612 C.3       7 UNK         0.0273 
     46 CB         25.1707    4.2903   -8.2587 C.3       7 UNK        -0.1935 
     47 C          26.8280    3.6410  -10.0531 C.2       7 UNK         0.5018 
     48 O          26.8756    4.3674  -11.0459 O.2       7 UNK        -0.5186 
     49 N          26.9700    2.3083  -10.0918 N.am      8 UNK        -0.4240 
     50 CA         27.3350    1.5348  -11.2823 C.3       8 UNK         0.0235 
     51 CB         27.0214    0.0515  -11.0228 C.3       8 UNK        -0.2000 
     52 C          28.8098    1.7081  -11.7045 C.2       8 UNK         0.4941 
     53 O          29.1680    1.2728  -12.7993 O.2       8 UNK        -0.5273 
     54 N          29.6318    2.3155  -10.8333 N.am      9 UNK        -0.4262 
     55 CA         31.0774    2.5398  -10.9513 C.3       9 UNK         0.0264 
     56 CB         31.4022    3.4762  -12.1344 C.3       9 UNK        -0.1955 
     57 C          31.8970    1.2343  -10.9738 C.2       9 UNK         0.5031 
     58 O          32.9854    1.2019  -11.5518 O.2       9 UNK        -0.5390 
     59 N          31.3818    0.1844  -10.3192 N.am      10 UNK        -0.4204 
     60 CA         32.0169   -1.1319  -10.2220 C.3       10 UNK         0.0237 
     61 CB         30.9561   -2.1787   -9.8472 C.3       10 UNK        -0.1985 
     62 C          33.1979   -1.1619   -9.2356 C.2       10 UNK         0.4970 
     63 O          34.0340   -2.0607   -9.3343 O.2       10 UNK        -0.4914 
     64 N          33.2591   -0.1850   -8.3201 N.am      11 UNK        -0.4285 
     65 CA         34.3703    0.0125   -7.3747 C.3       11 UNK         0.1007 
     66 C          35.6793    0.5540   -8.0232 C.2       11 UNK         0.5703 
     67 N          35.6766    0.9923   -9.2778 N.am      11 UNK        -0.7361 
     68 O          36.7225    0.5692   -7.3741 O.2       11 UNK        -0.4986 
     69 C69        33.9578    0.8843   -6.1564 C.3       12 UNK        -0.0947 
     70 S70        32.4666    0.2754   -5.3056 S.3       12 UNK        -0.2240 
     71 C71        33.1826   -0.9698   -4.1846 C.3       12 UNK         0.0194 
     72 H72        25.7172   -1.9701    3.1662 H         1 UNK         0.0906 
     73 H73        24.5981   -3.2585    2.6813 H         1 UNK         0.0906 
     74 H74        25.5167   -3.3927    4.1745 H         1 UNK         0.0906 
     75 H75        27.8205   -3.8288    0.7268 H         1 UNK         0.3140 
     76 H76        26.3174   -1.3987    1.0186 H         1 UNK         0.1085 
     77 H77        27.5463   -2.6621   -1.4837 H         1 UNK         0.0836 
     78 H78        26.8864   -1.0563   -1.3901 H         1 UNK         0.0836 
     79 H79        29.6588   -3.4722   -0.1478 H         1 UNK         0.0731 
     80 H80        30.9781   -2.3886    0.1925 H         1 UNK         0.0731 
     81 H81        32.1188   -1.1269   -1.6543 H         1 UNK         0.1312 
     82 H82        31.8088   -2.8239   -5.5751 H         1 UNK         0.1406 
     83 H83        29.1096   -4.0747   -2.4912 H         1 UNK         0.1631 
     84 H84        29.2415   -5.2780   -4.7255 H         1 UNK         0.0717 
     85 H85        30.2413   -4.6261   -6.0015 H         1 UNK         0.0717 
     86 H86        29.2261   -1.3187   -5.2248 H         1 UNK         0.0934 
     87 H87        29.8603   -1.9617   -6.7198 H         1 UNK         0.0934 
     88 H88        27.7747   -1.2707   -7.9119 H         1 UNK         0.0739 
     89 H89        26.6319   -1.0555   -5.3821 H         1 UNK         0.3093 
     90 H90        24.8397    0.7561   -4.8323 H         1 UNK         0.0818 
     91 H91        23.7284    2.1894   -6.4828 H         1 UNK         0.0819 
     92 H92        23.0774    0.7962   -7.3376 H         1 UNK         0.0819 
     93 H93        22.5265    1.1805   -5.7060 H         1 UNK         0.0819 
     94 H94        23.1759   -1.3245   -5.9965 H         1 UNK         0.3041 
     95 H95        22.6869   -3.0510   -4.5516 H         1 UNK         0.0784 
     96 H96        24.1132   -3.9104   -6.4368 H         1 UNK         0.0793 
     97 H97        25.3253   -4.4599   -5.2873 H         1 UNK         0.0793 
     98 H98        23.7286   -5.2041   -5.3125 H         1 UNK         0.0793 
     99 H99        24.9330   -3.5473   -2.6953 H         1 UNK         0.3024 
    100 H100       22.7600   -4.1308   -0.0928 H         1 UNK         0.1171 
    101 H101       23.8107   -6.3192    0.4462 H         1 UNK         0.0786 
    102 H102       22.6277   -6.5144   -0.8350 H         1 UNK         0.0786 
    103 H103       24.3414   -6.5041   -1.2268 H         1 UNK         0.0786 
    104 H104       25.5663   -4.6004   -0.2024 H         1 UNK         0.2977 
    105 H105       28.2989    1.2765   -5.4805 H         1 UNK         0.3127 
    106 H106       30.4802    2.5726   -6.8140 H         1 UNK         0.0770 
    107 H107       28.5083    3.6338   -4.7180 H         1 UNK         0.0814 
    108 H108       30.0083    4.4151   -5.1983 H         1 UNK         0.0814 
    109 H109       30.0595    2.8575   -4.3908 H         1 UNK         0.0814 
    110 H110       26.9417    2.9053   -7.0592 H         1 UNK         0.2983 
    111 H111       27.0072    5.3011   -8.7126 H         1 UNK         0.0947 
    112 H112       24.5931    4.9083   -8.9474 H         1 UNK         0.0806 
    113 H113       25.0320    4.7023   -7.2591 H         1 UNK         0.0806 
    114 H114       24.7332    3.2925   -8.2796 H         1 UNK         0.0806 
    115 H115       26.8336    1.7874   -9.2302 H         1 UNK         0.3000 
    116 H116       26.7159    1.8771  -12.1142 H         1 UNK         0.0850 
    117 H117       27.2083   -0.5494  -11.9137 H         1 UNK         0.0810 
    118 H118       25.9764   -0.0923  -10.7473 H         1 UNK         0.0810 
    119 H119       27.6377   -0.3560  -10.2214 H         1 UNK         0.0810 
    120 H120       29.2278    2.6066   -9.9532 H         1 UNK         0.3040 
    121 H121       31.3710    3.0573  -10.0369 H         1 UNK         0.0766 
    122 H122       31.2060    2.9992  -13.0950 H         1 UNK         0.0812 
    123 H123       32.4535    3.7666  -12.1262 H         1 UNK         0.0812 
    124 H124       30.8140    4.3926  -12.0871 H         1 UNK         0.0812 
    125 H125       30.5216    0.3184   -9.7881 H         1 UNK         0.3205 
    126 H126       32.4130   -1.3928  -11.2058 H         1 UNK         0.0754 
    127 H127       31.3937   -3.1757   -9.7798 H         1 UNK         0.0769 
    128 H128       30.1630   -2.2221  -10.5940 H         1 UNK         0.0769 
    129 H129       30.4960   -1.9571   -8.8864 H         1 UNK         0.0769 
    130 H130       32.5206    0.5011   -8.2912 H         1 UNK         0.2981 
    131 H131       34.6306   -0.9738   -6.9866 H         1 UNK         0.0541 
    132 H132       34.8330    0.9763   -9.8313 H         1 UNK         0.3459 
    133 H133       36.5348    1.3347   -9.6797 H         1 UNK         0.3459 
    134 H134       33.7603    1.9088   -6.4767 H         1 UNK         0.0612 
    135 H135       34.7695    0.9445   -5.4288 H         1 UNK         0.0612 
    136 H136       33.6980   -0.4669   -3.3651 H         1 UNK         0.0624 
    137 H137       33.9308   -1.5612   -4.7139 H         1 UNK         0.0624 
@<TRIPOS>BOND
     1    1    2 1    
     2    1   72 1    
     3    1   73 1    
     4    1   74 1    
     5    2    3 2    
     6    2    4 am   BACKBONE|DICT|INTERRES
     7    4    5 1    
     8    4   75 1    
     9    5    6 1    
    10    5   35 1    
    11    5   76 1    
    12    6    7 1    
    13    6   77 1    
    14    6   78 1    
    15    7    8 1    
    16    8    9 1    
    17    8   79 1    
    18    8   80 1    
    19    9   10 ar   
    20    9   14 ar   
    21   10   11 ar   
    22   10   81 1    
    23   11   12 ar   
    24   11   71 1    
    25   12   13 ar   
    26   12   82 1    
    27   13   14 ar   
    28   13   15 1    
    29   14   83 1    
    30   15   16 1    
    31   15   84 1    
    32   15   85 1    
    33   16   17 1    
    34   17   18 1    
    35   17   86 1    
    36   17   87 1    
    37   18   19 1    
    38   18   37 1    
    39   18   88 1    
    40   19   20 am   BACKBONE|DICT|INTERRES
    41   19   89 1    
    42   20   21 2    
    43   20   22 1    
    44   22   23 1    
    45   22   24 1    
    46   22   90 1    
    47   23   91 1    
    48   23   92 1    
    49   23   93 1    
    50   24   25 am   BACKBONE|DICT|INTERRES
    51   24   94 1    
    52   25   26 2    
    53   25   27 1    
    54   27   28 1    
    55   27   29 1    
    56   27   95 1    
    57   28   96 1    
    58   28   97 1    
    59   28   98 1    
    60   29   30 am   BACKBONE|DICT|INTERRES
    61   29   99 1    
    62   30   31 2    
    63   30   32 1    
    64   32   33 1    
    65   32   34 1    
    66   32  100 1    
    67   33  101 1    
    68   33  102 1    
    69   33  103 1    
    70   34   35 am   BACKBONE|DICT|INTERRES
    71   34  104 1    
    72   35   36 2    
    73   37   38 2    
    74   37   39 am   BACKBONE|DICT|INTERRES
    75   39   40 1    
    76   39  105 1    
    77   40   41 1    
    78   40   42 1    
    79   40  106 1    
    80   41  107 1    
    81   41  108 1    
    82   41  109 1    
    83   42   43 2    
    84   42   44 am   BACKBONE|DICT|INTERRES
    85   44   45 1    
    86   44  110 1    
    87   45   46 1    
    88   45   47 1    
    89   45  111 1    
    90   46  112 1    
    91   46  113 1    
    92   46  114 1    
    93   47   48 2    
    94   47   49 am   BACKBONE|DICT|INTERRES
    95   49   50 1    
    96   49  115 1    
    97   50   51 1    
    98   50   52 1    
    99   50  116 1    
   100   51  117 1    
   101   51  118 1    
   102   51  119 1    
   103   52   53 2    
   104   52   54 am   BACKBONE|DICT|INTERRES
   105   54   55 1    
   106   54  120 1    
   107   55   56 1    
   108   55   57 1    
   109   55  121 1    
   110   56  122 1    
   111   56  123 1    
   112   56  124 1    
   113   57   58 2    
   114   57   59 am   BACKBONE|DICT|INTERRES
   115   59   60 1    
   116   59  125 1    
   117   60   61 1    
   118   60   62 1    
   119   60  126 1    
   120   61  127 1    
   121   61  128 1    
   122   61  129 1    
   123   62   63 2    
   124   62   64 am   BACKBONE|DICT|INTERRES
   125   64   65 1    
   126   64  130 1    
   127   65   66 1    
   128   65   69 1    
   129   65  131 1    
   130   66   67 am   BACKBONE|DICT|INTERRES
   131   66   68 2    
   132   67  132 1    
   133   67  133 1    
   134   69   70 1    
   135   69  134 1    
   136   69  135 1    
   137   70   71 1    
   138   71  136 1    
   139   71  137 1    
@<TRIPOS>SUBSTRUCTURE
     1 UNK         1 GROUP             0       ****    0 ROOT    
