@<TRIPOS>MOLECULE
3R137
137   139    1
SMALL
USER_CHARGES


@<TRIPOS>ATOM
      1 CA         30.9179   -0.0609   -1.1493 C.3       0 UNK        -0.2020 
      2 C          30.0071   -1.0322   -1.8850 C.2       0 UNK         0.4855 
      3 O          29.7274   -0.8301   -3.0653 O.2       0 UNK        -0.5197 
      4 N          29.5370   -2.0781   -1.1908 N.am      1 UNK        -0.4892 
      5 CA         28.6615   -3.1249   -1.7399 C.3       1 UNK         0.0835 
      6 C6         28.6260   -4.3974   -0.8472 C.3       12 UNK        -0.0855 
      7 S7         30.2637   -5.0038   -0.3059 S.3       12 UNK        -0.2931 
      8 C8         30.6599   -6.2494   -1.5754 C.3       12 UNK         0.0378 
      9 C9         30.9655   -5.5904   -2.9104 C.ar      12 UNK        -0.0802 
     10 C10        32.1479   -4.8634   -3.0739 C.ar      12 UNK        -0.0944 
     11 C11        32.4046   -4.1857   -4.2683 C.ar      12 UNK        -0.0787 
     12 C12        31.4786   -4.2593   -5.3124 C.ar      12 UNK        -0.0862 
     13 C13        30.2993   -4.9942   -5.1657 C.ar      12 UNK        -0.0733 
     14 C14        30.0532   -5.6698   -3.9664 C.ar      12 UNK        -0.0832 
     15 C15        29.2787   -5.0406   -6.2930 C.3       12 UNK         0.0240 
     16 S16        27.7365   -4.1909   -5.8332 S.3       12 UNK        -0.2522 
     17 C17        28.2535   -2.4391   -5.7612 C.3       12 UNK        -0.0967 
     18 CA         27.4020   -1.5675   -6.7082 C.3       5 UNK         0.0660 
     19 N          25.9809   -1.5991   -6.3526 N.am      5 UNK        -0.4015 
     20 C          24.9887   -1.2994   -7.1990 C.2       4 UNK         0.4946 
     21 O          25.1661   -0.9445   -8.3643 O.2       4 UNK        -0.5353 
     22 CA         23.5591   -1.3812   -6.6400 C.3       4 UNK         0.0277 
     23 CB         23.1070   -2.8445   -6.5053 C.3       4 UNK        -0.1981 
     24 N          23.4134   -0.6964   -5.3529 N.am      4 UNK        -0.4209 
     25 C          23.5725    0.6233   -5.1810 C.2       3 UNK         0.4942 
     26 O          23.8482    1.4031   -6.0899 O.2       3 UNK        -0.5208 
     27 CA         23.4238    1.1758   -3.7554 C.3       3 UNK         0.0250 
     28 CB         21.9544    1.5249   -3.4691 C.3       3 UNK        -0.1990 
     29 N          23.9330    0.3029   -2.6938 N.am      3 UNK        -0.4232 
     30 C          25.1742   -0.1974   -2.6054 C.2       2 UNK         0.4993 
     31 O          26.0300   -0.0682   -3.4857 O.2       2 UNK        -0.5286 
     32 CA         25.5025   -0.9152   -1.2805 C.3       2 UNK         0.0209 
     33 CB         24.3975   -1.9071   -0.8469 C.3       2 UNK        -0.1931 
     34 N          26.8190   -1.5641   -1.2735 N.am      2 UNK        -0.4546 
     35 C          27.2171   -2.6304   -1.9841 C.2       1 UNK         0.5154 
     36 O          26.4917   -3.2438   -2.7676 O.2       1 UNK        -0.5181 
     37 C          27.9285   -0.1213   -6.8027 C.2       5 UNK         0.5014 
     38 O          28.8017    0.1483   -7.6313 O.2       5 UNK        -0.5248 
     39 N          27.3599    0.7971   -6.0059 N.am      6 UNK        -0.4434 
     40 CA         27.5905    2.2379   -6.1238 C.3       6 UNK         0.0363 
     41 CB         26.9616    2.9722   -4.9304 C.3       6 UNK        -0.1936 
     42 C          27.0719    2.8009   -7.4597 C.2       6 UNK         0.5081 
     43 O          27.8115    3.5151   -8.1353 O.2       6 UNK        -0.5248 
     44 N          25.8407    2.4344   -7.8491 N.am      7 UNK        -0.4718 
     45 CA         25.2259    2.7984   -9.1326 C.3       7 UNK         0.0273 
     46 CB         23.7448    2.3893   -9.1380 C.3       7 UNK        -0.1935 
     47 C          25.9546    2.1992  -10.3474 C.2       7 UNK         0.5018 
     48 O          26.0416    2.8585  -11.3836 O.2       7 UNK        -0.5186 
     49 N          26.5036    0.9866  -10.1871 N.am      8 UNK        -0.4240 
     50 CA         27.3838    0.3285  -11.1584 C.3       8 UNK         0.0235 
     51 CB         27.4922   -1.1654  -10.8106 C.3       8 UNK        -0.2000 
     52 C          28.7889    0.9593  -11.2569 C.2       8 UNK         0.4941 
     53 O          29.5444    0.5733  -12.1499 O.2       8 UNK        -0.5273 
     54 N          29.1159    1.8989  -10.3550 N.am      9 UNK        -0.4262 
     55 CA         30.3826    2.6250  -10.2336 C.3       9 UNK         0.0264 
     56 CB         30.6317    3.5200  -11.4673 C.3       9 UNK        -0.1955 
     57 C          31.5670    1.7016   -9.8963 C.2       9 UNK         0.5031 
     58 O          32.6371    1.8304  -10.4969 O.2       9 UNK        -0.5390 
     59 N          31.3541    0.7894   -8.9366 N.am      10 UNK        -0.4204 
     60 CA         32.3858   -0.0846   -8.3764 C.3       10 UNK         0.0237 
     61 CB         31.7338   -1.4086   -7.9314 C.3       10 UNK        -0.1985 
     62 C          33.1698    0.6348   -7.2558 C.2       10 UNK         0.4970 
     63 O          33.4893    1.8176   -7.3907 O.2       10 UNK        -0.4914 
     64 N          33.4909   -0.0885   -6.1759 N.am      11 UNK        -0.4285 
     65 CA         34.2488    0.4098   -5.0163 C.3       11 UNK         0.1007 
     66 C          33.5234    1.4801   -4.1447 C.2       11 UNK         0.5703 
     67 N          32.2137    1.6627   -4.2655 N.am      11 UNK        -0.7361 
     68 O          34.1683    2.1644   -3.3536 O.2       11 UNK        -0.4986 
     69 C69        34.8083   -0.7604   -4.1630 C.3       12 UNK        -0.0947 
     70 S70        33.5023   -1.8121   -3.4426 S.3       12 UNK        -0.2240 
     71 C71        33.6607   -3.3419   -4.4113 C.3       12 UNK         0.0194 
     72 H72        30.4489    0.9209   -1.0912 H         1 UNK         0.0906 
     73 H73        31.1393   -0.3949   -0.1359 H         1 UNK         0.0906 
     74 H74        31.8614    0.0465   -1.6831 H         1 UNK         0.0906 
     75 H75        29.8302   -2.2182   -0.2339 H         1 UNK         0.3140 
     76 H76        29.0633   -3.4022   -2.7161 H         1 UNK         0.1085 
     77 H77        28.0489   -4.2044    0.0596 H         1 UNK         0.0836 
     78 H78        28.1022   -5.2044   -1.3636 H         1 UNK         0.0836 
     79 H79        29.8384   -6.9622   -1.6633 H         1 UNK         0.0731 
     80 H80        31.5297   -6.8222   -1.2504 H         1 UNK         0.0731 
     81 H81        32.8497   -4.7890   -2.2541 H         1 UNK         0.1312 
     82 H82        31.6669   -3.7336   -6.2359 H         1 UNK         0.1406 
     83 H83        29.1318   -6.2237   -3.8462 H         1 UNK         0.1631 
     84 H84        29.0521   -6.0817   -6.5269 H         1 UNK         0.0717 
     85 H85        29.6764   -4.5988   -7.2082 H         1 UNK         0.0717 
     86 H86        28.1577   -2.0877   -4.7340 H         1 UNK         0.0934 
     87 H87        29.3119   -2.3606   -6.0100 H         1 UNK         0.0934 
     88 H88        27.4989   -1.9957   -7.7075 H         1 UNK         0.0739 
     89 H89        25.7626   -1.8531   -5.3989 H         1 UNK         0.3093 
     90 H90        22.8989   -0.8864   -7.3560 H         1 UNK         0.0818 
     91 H91        23.2000   -3.3693   -7.4573 H         1 UNK         0.0819 
     92 H92        23.7040   -3.3904   -5.7734 H         1 UNK         0.0819 
     93 H93        22.0618   -2.9104   -6.2026 H         1 UNK         0.0819 
     94 H94        23.1940   -1.2636   -4.5471 H         1 UNK         0.3041 
     95 H95        24.0016    2.1003   -3.7074 H         1 UNK         0.0784 
     96 H96        21.5554    2.1920   -4.2349 H         1 UNK         0.0793 
     97 H97        21.3230    0.6356   -3.4509 H         1 UNK         0.0793 
     98 H98        21.8454    2.0351   -2.5119 H         1 UNK         0.0793 
     99 H99        23.3038    0.1394   -1.9212 H         1 UNK         0.3024 
    100 H100       25.5597   -0.1311   -0.5235 H         1 UNK         0.1171 
    101 H101       24.6921   -2.4609    0.0447 H         1 UNK         0.0786 
    102 H102       23.4677   -1.3929   -0.6025 H         1 UNK         0.0786 
    103 H103       24.1719   -2.6335   -1.6285 H         1 UNK         0.0786 
    104 H104       27.5199   -1.1218   -0.6960 H         1 UNK         0.2977 
    105 H105       26.7094    0.4900   -5.2875 H         1 UNK         0.3127 
    106 H106       28.6697    2.4025   -6.0889 H         1 UNK         0.0770 
    107 H107       25.8765    2.8776   -4.9244 H         1 UNK         0.0814 
    108 H108       27.1947    4.0371   -4.9636 H         1 UNK         0.0814 
    109 H109       27.3376    2.5851   -3.9830 H         1 UNK         0.0814 
    110 H110       25.2628    1.8866   -7.2143 H         1 UNK         0.2983 
    111 H111       25.2786    3.8853   -9.2266 H         1 UNK         0.0947 
    112 H112       23.2678    2.6543  -10.0826 H         1 UNK         0.0806 
    113 H113       23.1925    2.8927   -8.3444 H         1 UNK         0.0806 
    114 H114       23.6234    1.3143   -8.9994 H         1 UNK         0.0806 
    115 H115       26.2999    0.4753   -9.3338 H         1 UNK         0.3000 
    116 H116       26.9211    0.4156  -12.1437 H         1 UNK         0.0850 
    117 H117       28.0442   -1.7059  -11.5805 H         1 UNK         0.0810 
    118 H118       26.5098   -1.6311  -10.7296 H         1 UNK         0.0810 
    119 H119       28.0189   -1.3186   -9.8693 H         1 UNK         0.0810 
    120 H120       28.4268    2.1376   -9.6508 H         1 UNK         0.3040 
    121 H121       30.2682    3.2862   -9.3735 H         1 UNK         0.0766 
    122 H122       30.8131    2.9317  -12.3672 H         1 UNK         0.0812 
    123 H123       31.5035    4.1574  -11.3161 H         1 UNK         0.0812 
    124 H124       29.7816    4.1746  -11.6593 H         1 UNK         0.0812 
    125 H125       30.4329    0.7298   -8.5070 H         1 UNK         0.3205 
    126 H126       33.1067   -0.3246   -9.1605 H         1 UNK         0.0754 
    127 H127       32.4917   -2.1589   -7.7058 H         1 UNK         0.0769 
    128 H128       31.1052   -1.8235   -8.7200 H         1 UNK         0.0769 
    129 H129       31.1085   -1.2752   -7.0485 H         1 UNK         0.0769 
    130 H130       33.1697   -1.0415   -6.1122 H         1 UNK         0.2981 
    131 H131       35.1173    0.9286   -5.4267 H         1 UNK         0.0541 
    132 H132       31.7603    2.3627   -3.7016 H         1 UNK         0.3459 
    133 H133       31.6725    1.0843   -4.8864 H         1 UNK         0.3459 
    134 H134       35.4255   -0.3775   -3.3483 H         1 UNK         0.0612 
    135 H135       35.4762   -1.3747   -4.7686 H         1 UNK         0.0612 
    136 H136       34.5300   -3.9026   -4.0650 H         1 UNK         0.0624 
    137 H137       33.8406   -3.1005   -5.4598 H         1 UNK         0.0624 
@<TRIPOS>BOND
     1    1    2 1    
     2    1   72 1    
     3    1   73 1    
     4    1   74 1    
     5    2    3 2    
     6    2    4 am   BACKBONE|DICT|INTERRES
     7    4    5 1    
     8    4   75 1    
     9    5    6 1    
    10    5   35 1    
    11    5   76 1    
    12    6    7 1    
    13    6   77 1    
    14    6   78 1    
    15    7    8 1    
    16    8    9 1    
    17    8   79 1    
    18    8   80 1    
    19    9   10 ar   
    20    9   14 ar   
    21   10   11 ar   
    22   10   81 1    
    23   11   12 ar   
    24   11   71 1    
    25   12   13 ar   
    26   12   82 1    
    27   13   14 ar   
    28   13   15 1    
    29   14   83 1    
    30   15   16 1    
    31   15   84 1    
    32   15   85 1    
    33   16   17 1    
    34   17   18 1    
    35   17   86 1    
    36   17   87 1    
    37   18   19 1    
    38   18   37 1    
    39   18   88 1    
    40   19   20 am   BACKBONE|DICT|INTERRES
    41   19   89 1    
    42   20   21 2    
    43   20   22 1    
    44   22   23 1    
    45   22   24 1    
    46   22   90 1    
    47   23   91 1    
    48   23   92 1    
    49   23   93 1    
    50   24   25 am   BACKBONE|DICT|INTERRES
    51   24   94 1    
    52   25   26 2    
    53   25   27 1    
    54   27   28 1    
    55   27   29 1    
    56   27   95 1    
    57   28   96 1    
    58   28   97 1    
    59   28   98 1    
    60   29   30 am   BACKBONE|DICT|INTERRES
    61   29   99 1    
    62   30   31 2    
    63   30   32 1    
    64   32   33 1    
    65   32   34 1    
    66   32  100 1    
    67   33  101 1    
    68   33  102 1    
    69   33  103 1    
    70   34   35 am   BACKBONE|DICT|INTERRES
    71   34  104 1    
    72   35   36 2    
    73   37   38 2    
    74   37   39 am   BACKBONE|DICT|INTERRES
    75   39   40 1    
    76   39  105 1    
    77   40   41 1    
    78   40   42 1    
    79   40  106 1    
    80   41  107 1    
    81   41  108 1    
    82   41  109 1    
    83   42   43 2    
    84   42   44 am   BACKBONE|DICT|INTERRES
    85   44   45 1    
    86   44  110 1    
    87   45   46 1    
    88   45   47 1    
    89   45  111 1    
    90   46  112 1    
    91   46  113 1    
    92   46  114 1    
    93   47   48 2    
    94   47   49 am   BACKBONE|DICT|INTERRES
    95   49   50 1    
    96   49  115 1    
    97   50   51 1    
    98   50   52 1    
    99   50  116 1    
   100   51  117 1    
   101   51  118 1    
   102   51  119 1    
   103   52   53 2    
   104   52   54 am   BACKBONE|DICT|INTERRES
   105   54   55 1    
   106   54  120 1    
   107   55   56 1    
   108   55   57 1    
   109   55  121 1    
   110   56  122 1    
   111   56  123 1    
   112   56  124 1    
   113   57   58 2    
   114   57   59 am   BACKBONE|DICT|INTERRES
   115   59   60 1    
   116   59  125 1    
   117   60   61 1    
   118   60   62 1    
   119   60  126 1    
   120   61  127 1    
   121   61  128 1    
   122   61  129 1    
   123   62   63 2    
   124   62   64 am   BACKBONE|DICT|INTERRES
   125   64   65 1    
   126   64  130 1    
   127   65   66 1    
   128   65   69 1    
   129   65  131 1    
   130   66   67 am   BACKBONE|DICT|INTERRES
   131   66   68 2    
   132   67  132 1    
   133   67  133 1    
   134   69   70 1    
   135   69  134 1    
   136   69  135 1    
   137   70   71 1    
   138   71  136 1    
   139   71  137 1    
@<TRIPOS>SUBSTRUCTURE
     1 UNK         1 GROUP             0       ****    0 ROOT    
