@<TRIPOS>MOLECULE
3R137
137   139    1
SMALL
USER_CHARGES


@<TRIPOS>ATOM
      1 CA         26.0382   -7.6914   -0.2341 C.3       0 UNK        -0.2020 
      2 C          26.4787   -6.3121   -0.7005 C.2       0 UNK         0.4855 
      3 O          26.4120   -6.0247   -1.8959 O.2       0 UNK        -0.5197 
      4 N          26.9095   -5.4561    0.2377 N.am      1 UNK        -0.4892 
      5 CA         27.4240   -4.0837    0.0639 C.3       1 UNK         0.0835 
      6 C6         28.6494   -3.9738   -0.8806 C.3       12 UNK        -0.0855 
      7 S7         30.0200   -5.0941   -0.4145 S.3       12 UNK        -0.2931 
      8 C8         31.4732   -3.9837   -0.4478 C.3       12 UNK         0.0378 
      9 C9         31.6376   -3.1868   -1.7426 C.ar      12 UNK        -0.0802 
     10 C10        32.1771   -1.8971   -1.6852 C.ar      12 UNK        -0.0944 
     11 C11        32.2891   -1.1137   -2.8385 C.ar      12 UNK        -0.0787 
     12 C12        31.8602   -1.6382   -4.0604 C.ar      12 UNK        -0.0862 
     13 C13        31.3196   -2.9249   -4.1373 C.ar      12 UNK        -0.0733 
     14 C14        31.2368   -3.7030   -2.9814 C.ar      12 UNK        -0.0832 
     15 C15        30.7799   -3.4604   -5.4571 C.3       12 UNK         0.0240 
     16 S16        28.9604   -3.3104   -5.5488 S.3       12 UNK        -0.2522 
     17 C17        28.7397   -1.5026   -5.4778 C.3       12 UNK        -0.0967 
     18 CA         27.8770   -0.9510   -6.6355 C.3       5 UNK         0.0660 
     19 N          26.4419   -1.1387   -6.4038 N.am      5 UNK        -0.4015 
     20 C          25.4907   -0.8748   -7.3143 C.2       4 UNK         0.4946 
     21 O          25.7286   -0.5050   -8.4635 O.2       4 UNK        -0.5353 
     22 CA         24.0244   -0.9732   -6.8554 C.3       4 UNK         0.0277 
     23 CB         23.4997   -2.4062   -7.0358 C.3       4 UNK        -0.1981 
     24 N          23.8179   -0.5483   -5.4687 N.am      4 UNK        -0.4209 
     25 C          24.1667    0.6425   -4.9592 C.2       3 UNK         0.4942 
     26 O          24.6194    1.5637   -5.6389 O.2       3 UNK        -0.5208 
     27 CA         24.0432    0.8317   -3.4352 C.3       3 UNK         0.0250 
     28 CB         22.8747    1.7750   -3.1078 C.3       3 UNK        -0.1990 
     29 N          23.8890   -0.4127   -2.6692 N.am      3 UNK        -0.4232 
     30 C          24.7820   -1.4116   -2.6047 C.2       2 UNK         0.4993 
     31 O          25.8497   -1.4220   -3.2243 O.2       2 UNK        -0.5286 
     32 CA         24.3484   -2.6346   -1.7801 C.3       2 UNK         0.0209 
     33 CB         23.4454   -3.5502   -2.6246 C.3       2 UNK        -0.1931 
     34 N          25.4795   -3.4228   -1.2937 N.am      2 UNK        -0.4546 
     35 C          26.3296   -3.0640   -0.3254 C.2       1 UNK         0.5154 
     36 O          26.2517   -1.9964    0.2852 O.2       1 UNK        -0.5181 
     37 C          28.2399    0.5253   -6.8852 C.2       5 UNK         0.5014 
     38 O          29.0761    0.7939   -7.7482 O.2       5 UNK        -0.5248 
     39 N          27.6263    1.4486   -6.1318 N.am      6 UNK        -0.4434 
     40 CA         27.8402    2.8896   -6.2728 C.3       6 UNK         0.0363 
     41 CB         27.3252    3.6238   -5.0243 C.3       6 UNK        -0.1936 
     42 C          27.1832    3.4374   -7.5477 C.2       6 UNK         0.5081 
     43 O          27.7870    4.2676   -8.2256 O.2       6 UNK        -0.5248 
     44 N          25.9839    2.9328   -7.8724 N.am      7 UNK        -0.4718 
     45 CA         25.2504    3.2487   -9.1010 C.3       7 UNK         0.0273 
     46 CB         23.8398    2.6433   -9.0281 C.3       7 UNK        -0.1935 
     47 C          25.9835    2.7791  -10.3702 C.2       7 UNK         0.5018 
     48 O          26.0466    3.5299  -11.3444 O.2       7 UNK        -0.5186 
     49 N          26.5436    1.5619  -10.3279 N.am      8 UNK        -0.4240 
     50 CA         27.3547    0.9836  -11.4029 C.3       8 UNK         0.0235 
     51 CB         27.4151   -0.5415  -11.2147 C.3       8 UNK        -0.2000 
     52 C          28.7820    1.5567  -11.4818 C.2       8 UNK         0.4941 
     53 O          29.4284    1.3850  -12.5159 O.2       8 UNK        -0.5273 
     54 N          29.2558    2.1835  -10.3926 N.am      9 UNK        -0.4262 
     55 CA         30.6348    2.6267  -10.1434 C.3       9 UNK         0.0264 
     56 CB         31.0385    3.7690  -11.0994 C.3       9 UNK        -0.1955 
     57 C          31.6206    1.4399  -10.1530 C.2       9 UNK         0.5031 
     58 O          32.6767    1.5057  -10.7850 O.2       9 UNK        -0.5390 
     59 N          31.2276    0.3590   -9.4673 N.am      10 UNK        -0.4204 
     60 CA         31.9172   -0.9326   -9.4513 C.3       10 UNK         0.0237 
     61 CB         30.8721   -2.0402   -9.2359 C.3       10 UNK        -0.1985 
     62 C          33.0333   -1.0309   -8.3965 C.2       10 UNK         0.4970 
     63 O          33.7997   -1.9943   -8.4371 O.2       10 UNK        -0.4914 
     64 N          33.0989   -0.0715   -7.4637 N.am      11 UNK        -0.4285 
     65 CA         34.1244    0.0011   -6.4123 C.3       11 UNK         0.1007 
     66 C          35.5514    0.2544   -6.9761 C.2       11 UNK         0.5703 
     67 N          36.5741   -0.3383   -6.3751 N.am      11 UNK        -0.7361 
     68 O          35.7394    1.0107   -7.9274 O.2       11 UNK        -0.4986 
     69 C69        33.7386    1.0487   -5.3326 C.3       12 UNK        -0.0947 
     70 S70        34.3500    0.5919   -3.6723 S.3       12 UNK        -0.2240 
     71 C71        32.8052    0.3188   -2.7426 C.3       12 UNK         0.0194 
     72 H72        26.6391   -8.4595   -0.7202 H         1 UNK         0.0906 
     73 H73        24.9937   -7.8598   -0.4952 H         1 UNK         0.0906 
     74 H74        26.1424   -7.8119    0.8440 H         1 UNK         0.0906 
     75 H75        26.9035   -5.7693    1.1990 H         1 UNK         0.3140 
     76 H76        27.7647   -3.7833    1.0566 H         1 UNK         0.1085 
     77 H77        29.0150   -2.9450   -0.8860 H         1 UNK         0.0836 
     78 H78        28.3668   -4.1927   -1.9121 H         1 UNK         0.0836 
     79 H79        31.3957   -3.3042    0.4026 H         1 UNK         0.0731 
     80 H80        32.3728   -4.5789   -0.2872 H         1 UNK         0.0731 
     81 H81        32.4870   -1.4909   -0.7318 H         1 UNK         0.1312 
     82 H82        31.9189   -1.0327   -4.9511 H         1 UNK         0.1406 
     83 H83        30.8141   -4.6962   -3.0457 H         1 UNK         0.1631 
     84 H84        31.0539   -4.5108   -5.5659 H         1 UNK         0.0717 
     85 H85        31.2371   -2.9389   -6.2987 H         1 UNK         0.0717 
     86 H86        28.3196   -1.2346   -4.5062 H         1 UNK         0.0934 
     87 H87        29.7263   -1.0438   -5.5056 H         1 UNK         0.0934 
     88 H88        28.1290   -1.4907   -7.5506 H         1 UNK         0.0739 
     89 H89        26.1683   -1.4237   -5.4706 H         1 UNK         0.3093 
     90 H90        23.4353   -0.3093   -7.4905 H         1 UNK         0.0818 
     91 H91        23.6259   -2.7397   -8.0670 H         1 UNK         0.0819 
     92 H92        24.0283   -3.1152   -6.3971 H         1 UNK         0.0819 
     93 H93        22.4364   -2.4727   -6.8047 H         1 UNK         0.0819 
     94 H94        23.4460   -1.2387   -4.8343 H         1 UNK         0.3041 
     95 H95        24.9683    1.3065   -3.1019 H         1 UNK         0.0784 
     96 H96        22.9781    2.7238   -3.6369 H         1 UNK         0.0793 
     97 H97        21.9147    1.3448   -3.3963 H         1 UNK         0.0793 
     98 H98        22.8351    2.0051   -2.0429 H         1 UNK         0.0793 
     99 H99        23.0283   -0.5040   -2.1477 H         1 UNK         0.3024 
    100 H100       23.7866   -2.2844   -0.9109 H         1 UNK         0.1171 
    101 H101       23.9673   -3.9286   -3.5049 H         1 UNK         0.0786 
    102 H102       23.1020   -4.4089   -2.0469 H         1 UNK         0.0786 
    103 H103       22.5564   -3.0222   -2.9719 H         1 UNK         0.0786 
    104 H104       25.6544   -4.3176   -1.7448 H         1 UNK         0.2977 
    105 H105       26.9023    1.1585   -5.4893 H         1 UNK         0.3127 
    106 H106       28.9152    3.0692   -6.3488 H         1 UNK         0.0770 
    107 H107       27.5255    4.6937   -5.0953 H         1 UNK         0.0814 
    108 H108       26.2495    3.5049   -4.8931 H         1 UNK         0.0814 
    109 H109       27.8161    3.2625   -4.1206 H         1 UNK         0.0814 
    110 H110       25.5384    2.2943   -7.2187 H         1 UNK         0.2983 
    111 H111       25.1536    4.3351   -9.1580 H         1 UNK         0.0947 
    112 H112       23.8697    1.5545   -8.9872 H         1 UNK         0.0806 
    113 H113       23.2517    2.9202   -9.9040 H         1 UNK         0.0806 
    114 H114       23.3004    2.9966   -8.1489 H         1 UNK         0.0806 
    115 H115       26.3749    0.9705   -9.5169 H         1 UNK         0.3000 
    116 H116       26.8650    1.1918  -12.3566 H         1 UNK         0.0850 
    117 H117       27.9907   -1.0148  -12.0114 H         1 UNK         0.0810 
    118 H118       26.4182   -0.9825  -11.2288 H         1 UNK         0.0810 
    119 H119       27.8849   -0.8099  -10.2674 H         1 UNK         0.0810 
    120 H120       28.6388    2.2433   -9.5930 H         1 UNK         0.3040 
    121 H121       30.6459    3.0273   -9.1284 H         1 UNK         0.0766 
    122 H122       32.0153    4.1731  -10.8313 H         1 UNK         0.0812 
    123 H123       30.3241    4.5911  -11.0562 H         1 UNK         0.0812 
    124 H124       31.1010    3.4319  -12.1344 H         1 UNK         0.0812 
    125 H125       30.3651    0.4295   -8.9257 H         1 UNK         0.3205 
    126 H126       32.3830   -1.0941  -10.4258 H         1 UNK         0.0754 
    127 H127       31.3368   -3.0272   -9.2330 H         1 UNK         0.0769 
    128 H128       30.1253   -2.0389  -10.0300 H         1 UNK         0.0769 
    129 H129       30.3517   -1.9213   -8.2864 H         1 UNK         0.0769 
    130 H130       32.4585    0.7045   -7.5272 H         1 UNK         0.2981 
    131 H131       34.1317   -0.9857   -5.9444 H         1 UNK         0.0541 
    132 H132       37.5076   -0.1746   -6.7180 H         1 UNK         0.3459 
    133 H133       36.4300   -0.9343   -5.5749 H         1 UNK         0.3459 
    134 H134       32.6554    1.1644   -5.2817 H         1 UNK         0.0612 
    135 H135       34.1165    2.0410   -5.5865 H         1 UNK         0.0612 
    136 H136       32.9993    0.5769   -1.7005 H         1 UNK         0.0624 
    137 H137       32.0323    1.0111   -3.0784 H         1 UNK         0.0624 
@<TRIPOS>BOND
     1    1    2 1    
     2    1   72 1    
     3    1   73 1    
     4    1   74 1    
     5    2    3 2    
     6    2    4 am   BACKBONE|DICT|INTERRES
     7    4    5 1    
     8    4   75 1    
     9    5    6 1    
    10    5   35 1    
    11    5   76 1    
    12    6    7 1    
    13    6   77 1    
    14    6   78 1    
    15    7    8 1    
    16    8    9 1    
    17    8   79 1    
    18    8   80 1    
    19    9   10 ar   
    20    9   14 ar   
    21   10   11 ar   
    22   10   81 1    
    23   11   12 ar   
    24   11   71 1    
    25   12   13 ar   
    26   12   82 1    
    27   13   14 ar   
    28   13   15 1    
    29   14   83 1    
    30   15   16 1    
    31   15   84 1    
    32   15   85 1    
    33   16   17 1    
    34   17   18 1    
    35   17   86 1    
    36   17   87 1    
    37   18   19 1    
    38   18   37 1    
    39   18   88 1    
    40   19   20 am   BACKBONE|DICT|INTERRES
    41   19   89 1    
    42   20   21 2    
    43   20   22 1    
    44   22   23 1    
    45   22   24 1    
    46   22   90 1    
    47   23   91 1    
    48   23   92 1    
    49   23   93 1    
    50   24   25 am   BACKBONE|DICT|INTERRES
    51   24   94 1    
    52   25   26 2    
    53   25   27 1    
    54   27   28 1    
    55   27   29 1    
    56   27   95 1    
    57   28   96 1    
    58   28   97 1    
    59   28   98 1    
    60   29   30 am   BACKBONE|DICT|INTERRES
    61   29   99 1    
    62   30   31 2    
    63   30   32 1    
    64   32   33 1    
    65   32   34 1    
    66   32  100 1    
    67   33  101 1    
    68   33  102 1    
    69   33  103 1    
    70   34   35 am   BACKBONE|DICT|INTERRES
    71   34  104 1    
    72   35   36 2    
    73   37   38 2    
    74   37   39 am   BACKBONE|DICT|INTERRES
    75   39   40 1    
    76   39  105 1    
    77   40   41 1    
    78   40   42 1    
    79   40  106 1    
    80   41  107 1    
    81   41  108 1    
    82   41  109 1    
    83   42   43 2    
    84   42   44 am   BACKBONE|DICT|INTERRES
    85   44   45 1    
    86   44  110 1    
    87   45   46 1    
    88   45   47 1    
    89   45  111 1    
    90   46  112 1    
    91   46  113 1    
    92   46  114 1    
    93   47   48 2    
    94   47   49 am   BACKBONE|DICT|INTERRES
    95   49   50 1    
    96   49  115 1    
    97   50   51 1    
    98   50   52 1    
    99   50  116 1    
   100   51  117 1    
   101   51  118 1    
   102   51  119 1    
   103   52   53 2    
   104   52   54 am   BACKBONE|DICT|INTERRES
   105   54   55 1    
   106   54  120 1    
   107   55   56 1    
   108   55   57 1    
   109   55  121 1    
   110   56  122 1    
   111   56  123 1    
   112   56  124 1    
   113   57   58 2    
   114   57   59 am   BACKBONE|DICT|INTERRES
   115   59   60 1    
   116   59  125 1    
   117   60   61 1    
   118   60   62 1    
   119   60  126 1    
   120   61  127 1    
   121   61  128 1    
   122   61  129 1    
   123   62   63 2    
   124   62   64 am   BACKBONE|DICT|INTERRES
   125   64   65 1    
   126   64  130 1    
   127   65   66 1    
   128   65   69 1    
   129   65  131 1    
   130   66   67 am   BACKBONE|DICT|INTERRES
   131   66   68 2    
   132   67  132 1    
   133   67  133 1    
   134   69   70 1    
   135   69  134 1    
   136   69  135 1    
   137   70   71 1    
   138   71  136 1    
   139   71  137 1    
@<TRIPOS>SUBSTRUCTURE
     1 UNK         1 GROUP             0       ****    0 ROOT    
