@<TRIPOS>MOLECULE
3R137
137   139    1
SMALL
USER_CHARGES


@<TRIPOS>ATOM
      1 CA         22.6907   -4.2233   -2.4996 C.3       0 UNK        -0.2020 
      2 C          24.0390   -3.8171   -1.9246 C.2       0 UNK         0.4855 
      3 O          24.0921   -2.9760   -1.0270 O.2       0 UNK        -0.5197 
      4 N          25.1277   -4.4119   -2.4309 N.am      1 UNK        -0.4892 
      5 CA         26.5053   -4.1410   -2.0034 C.3       1 UNK         0.0835 
      6 C6         27.4808   -5.2160   -2.5476 C.3       12 UNK        -0.0855 
      7 S7         28.9931   -5.3558   -1.5319 S.3       12 UNK        -0.2931 
      8 C8         30.2667   -5.7548   -2.7736 C.3       12 UNK         0.0378 
      9 C9         30.5593   -4.5852   -3.7035 C.ar      12 UNK        -0.0802 
     10 C10        31.2695   -3.4740   -3.2371 C.ar      12 UNK        -0.0944 
     11 C11        31.5426   -2.3978   -4.0871 C.ar      12 UNK        -0.0787 
     12 C12        31.0821   -2.4348   -5.4066 C.ar      12 UNK        -0.0862 
     13 C13        30.3865   -3.5440   -5.8917 C.ar      12 UNK        -0.0733 
     14 C14        30.1408   -4.6241   -5.0373 C.ar      12 UNK        -0.0832 
     15 C15        29.8999   -3.5504   -7.3379 C.3       12 UNK         0.0240 
     16 S16        28.1580   -4.0642   -7.5343 S.3       12 UNK        -0.2522 
     17 C17        27.2980   -3.0639   -6.2735 C.3       12 UNK        -0.0967 
     18 CA         26.6009   -1.8050   -6.8358 C.3       5 UNK         0.0660 
     19 N          25.4881   -1.4066   -5.9708 N.am      5 UNK        -0.4015 
     20 C          24.4791   -0.6066   -6.3407 C.2       4 UNK         0.4946 
     21 O          24.3715   -0.1159   -7.4641 O.2       4 UNK        -0.5353 
     22 CA         23.4330   -0.2783   -5.2638 C.3       4 UNK         0.0277 
     23 CB         22.4612   -1.4546   -5.0795 C.3       4 UNK        -0.1981 
     24 N          24.0493    0.0626   -3.9783 N.am      4 UNK        -0.4209 
     25 C          24.6903    1.2163   -3.7376 C.2       3 UNK         0.4942 
     26 O          24.8106    2.1198   -4.5637 O.2       3 UNK        -0.5208 
     27 CA         25.3640    1.3531   -2.3698 C.3       3 UNK         0.0250 
     28 CB         24.3609    1.2570   -1.2054 C.3       3 UNK        -0.1990 
     29 N          26.3797    0.3143   -2.2632 N.am      3 UNK        -0.4232 
     30 C          27.5383    0.3841   -1.6069 C.2       2 UNK         0.4993 
     31 O          27.8670    1.3447   -0.9088 O.2       2 UNK        -0.5286 
     32 CA         28.4910   -0.8218   -1.7800 C.3       2 UNK         0.0209 
     33 CB         29.7123   -0.7403   -0.8446 C.3       2 UNK        -0.1931 
     34 N          27.8554   -2.1336   -1.5979 N.am      2 UNK        -0.4546 
     35 C          26.9484   -2.7152   -2.3947 C.2       1 UNK         0.5154 
     36 O          26.4669   -2.1731   -3.3969 O.2       1 UNK        -0.5181 
     37 C          27.5952   -0.6453   -7.0534 C.2       5 UNK         0.5014 
     38 O          28.2360   -0.5858   -8.1027 O.2       5 UNK        -0.5248 
     39 N          27.6660    0.2944   -6.0970 N.am      6 UNK        -0.4434 
     40 CA         28.4950    1.5019   -6.1713 C.3       6 UNK         0.0363 
     41 CB         28.4709    2.2314   -4.8195 C.3       6 UNK        -0.1936 
     42 C          28.1006    2.4658   -7.3086 C.2       6 UNK         0.5081 
     43 O          28.9209    3.2850   -7.7224 O.2       6 UNK        -0.5248 
     44 N          26.8666    2.3471   -7.8150 N.am      7 UNK        -0.4718 
     45 CA         26.4048    3.0444   -9.0145 C.3       7 UNK         0.0273 
     46 CB         24.8698    3.1261   -8.9780 C.3       7 UNK        -0.1935 
     47 C          26.8789    2.3732  -10.3194 C.2       7 UNK         0.5018 
     48 O          26.7589    2.9957  -11.3758 O.2       7 UNK        -0.5186 
     49 N          27.3714    1.1272  -10.2439 N.am      8 UNK        -0.4240 
     50 CA         27.7341    0.3029  -11.3950 C.3       8 UNK         0.0235 
     51 CB         27.0373   -1.0647  -11.2821 C.3       8 UNK        -0.2000 
     52 C          29.2508    0.1179  -11.5402 C.2       8 UNK         0.4941 
     53 O          29.7431    0.2190  -12.6656 O.2       8 UNK        -0.5273 
     54 N          29.9688   -0.1794  -10.4460 N.am      9 UNK        -0.4262 
     55 CA         31.3793   -0.5778  -10.5003 C.3       9 UNK         0.0264 
     56 CB         31.4671   -2.0734  -10.8725 C.3       9 UNK        -0.1955 
     57 C          32.1179   -0.3057   -9.1833 C.2       9 UNK         0.5031 
     58 O          31.4858   -0.0380   -8.1595 O.2       9 UNK        -0.5390 
     59 N          33.4544   -0.4214   -9.2483 N.am      10 UNK        -0.4204 
     60 CA         34.4332   -0.3545   -8.1560 C.3       10 UNK         0.0237 
     61 CB         34.3772   -1.6418   -7.3034 C.3       10 UNK        -0.1985 
     62 C          34.3269    0.9432   -7.3359 C.2       10 UNK         0.4970 
     63 O          34.8210    1.9776   -7.7864 O.2       10 UNK        -0.4914 
     64 N          33.6879    0.8649   -6.1632 N.am      11 UNK        -0.4285 
     65 CA         33.3570    2.0022   -5.2920 C.3       11 UNK         0.1007 
     66 C          32.3111    2.9945   -5.8822 C.2       11 UNK         0.5703 
     67 N          31.6215    2.6556   -6.9630 N.am      11 UNK        -0.7361 
     68 O          32.1312    4.0873   -5.3499 O.2       11 UNK        -0.4986 
     69 C69        32.9651    1.5228   -3.8665 C.3       12 UNK        -0.0947 
     70 S70        31.5426    0.3749   -3.8484 S.3       12 UNK        -0.2240 
     71 C71        32.3805   -1.2221   -3.6026 C.3       12 UNK         0.0194 
     72 H72        22.0604   -3.3465   -2.6443 H         1 UNK         0.0906 
     73 H73        22.7937   -4.7288   -3.4596 H         1 UNK         0.0906 
     74 H74        22.1794   -4.8961   -1.8116 H         1 UNK         0.0906 
     75 H75        25.0232   -5.0761   -3.1844 H         1 UNK         0.3140 
     76 H76        26.5014   -4.1991   -0.9122 H         1 UNK         0.1085 
     77 H77        27.0054   -6.1981   -2.5290 H         1 UNK         0.0836 
     78 H78        27.7285   -5.0271   -3.5935 H         1 UNK         0.0836 
     79 H79        29.9550   -6.6352   -3.3380 H         1 UNK         0.0731 
     80 H80        31.1849   -6.0361   -2.2559 H         1 UNK         0.0731 
     81 H81        31.6158   -3.4558   -2.2128 H         1 UNK         0.1312 
     82 H82        31.2680   -1.5945   -6.0609 H         1 UNK         0.1406 
     83 H83        29.6033   -5.4861   -5.4087 H         1 UNK         0.1631 
     84 H84        30.5322   -4.2228   -7.9186 H         1 UNK         0.0717 
     85 H85        30.0165   -2.5616   -7.7835 H         1 UNK         0.0717 
     86 H86        26.5523   -3.7298   -5.8358 H         1 UNK         0.0934 
     87 H87        27.9597   -2.8048   -5.4472 H         1 UNK         0.0934 
     88 H88        26.1775   -2.0542   -7.8117 H         1 UNK         0.0739 
     89 H89        25.5375   -1.7457   -5.0141 H         1 UNK         0.3093 
     90 H90        22.8586    0.5850   -5.6079 H         1 UNK         0.0818 
     91 H91        21.6951   -1.2263   -4.3382 H         1 UNK         0.0819 
     92 H92        21.9473   -1.6825   -6.0144 H         1 UNK         0.0819 
     93 H93        22.9778   -2.3615   -4.7653 H         1 UNK         0.0819 
     94 H94        23.9836   -0.6247   -3.2409 H         1 UNK         0.3041 
     95 H95        25.8464    2.3327   -2.3361 H         1 UNK         0.0784 
     96 H96        23.5572    1.9855   -1.3201 H         1 UNK         0.0793 
     97 H97        23.9045    0.2688   -1.1359 H         1 UNK         0.0793 
     98 H98        24.8490    1.4615   -0.2523 H         1 UNK         0.0793 
     99 H99        26.2189   -0.5395   -2.7949 H         1 UNK         0.3024 
    100 H100       28.8604   -0.7790   -2.8074 H         1 UNK         0.1171 
    101 H101       30.4079   -1.5590   -1.0269 H         1 UNK         0.0786 
    102 H102       30.2653    0.1872   -0.9999 H         1 UNK         0.0786 
    103 H103       29.4189   -0.7743    0.2051 H         1 UNK         0.0786 
    104 H104       28.1833   -2.6647   -0.8037 H         1 UNK         0.2977 
    105 H105       27.0857    0.1908   -5.2797 H         1 UNK         0.3127 
    106 H106       29.5154    1.1668   -6.3627 H         1 UNK         0.0770 
    107 H107       27.4751    2.5996   -4.5735 H         1 UNK         0.0814 
    108 H108       29.1411    3.0921   -4.8342 H         1 UNK         0.0814 
    109 H109       28.8039    1.5843   -4.0102 H         1 UNK         0.0814 
    110 H110       26.2370    1.6647   -7.4140 H         1 UNK         0.2983 
    111 H111       26.7999    4.0628   -9.0084 H         1 UNK         0.0947 
    112 H112       24.4884    3.6939   -9.8278 H         1 UNK         0.0806 
    113 H113       24.5193    3.6232   -8.0732 H         1 UNK         0.0806 
    114 H114       24.4121    2.1369   -9.0161 H         1 UNK         0.0806 
    115 H115       27.5031    0.6983   -9.3329 H         1 UNK         0.3000 
    116 H116       27.3775    0.7713  -12.3150 H         1 UNK         0.0850 
    117 H117       27.2586   -1.6866  -12.1505 H         1 UNK         0.0810 
    118 H118       25.9541   -0.9537  -11.2307 H         1 UNK         0.0810 
    119 H119       27.3585   -1.6169  -10.3983 H         1 UNK         0.0810 
    120 H120       29.5254   -0.2328   -9.5300 H         1 UNK         0.3040 
    121 H121       31.8839    0.0118  -11.2690 H         1 UNK         0.0766 
    122 H122       30.9467   -2.6966  -10.1447 H         1 UNK         0.0812 
    123 H123       32.5001   -2.4197  -10.9186 H         1 UNK         0.0812 
    124 H124       31.0254   -2.2672  -11.8500 H         1 UNK         0.0812 
    125 H125       33.8564   -0.5988  -10.1585 H         1 UNK         0.3205 
    126 H126       35.4170   -0.3267   -8.6274 H         1 UNK         0.0754 
    127 H127       34.6492   -2.5129   -7.8995 H         1 UNK         0.0769 
    128 H128       33.3851   -1.8274   -6.8977 H         1 UNK         0.0769 
    129 H129       35.0776   -1.5968   -6.4681 H         1 UNK         0.0769 
    130 H130       33.2577   -0.0115   -5.9133 H         1 UNK         0.2981 
    131 H131       34.2732    2.5857   -5.1862 H         1 UNK         0.0541 
    132 H132       31.7227    1.7287   -7.3637 H         1 UNK         0.3459 
    133 H133       30.8900    3.2645   -7.3079 H         1 UNK         0.3459 
    134 H134       32.7243    2.3743   -3.2277 H         1 UNK         0.0612 
    135 H135       33.8215    1.0413   -3.3923 H         1 UNK         0.0612 
    136 H136       33.3264   -1.2325   -4.1448 H         1 UNK         0.0624 
    137 H137       32.6281   -1.3257   -2.5451 H         1 UNK         0.0624 
@<TRIPOS>BOND
     1    1    2 1    
     2    1   72 1    
     3    1   73 1    
     4    1   74 1    
     5    2    3 2    
     6    2    4 am   BACKBONE|DICT|INTERRES
     7    4    5 1    
     8    4   75 1    
     9    5    6 1    
    10    5   35 1    
    11    5   76 1    
    12    6    7 1    
    13    6   77 1    
    14    6   78 1    
    15    7    8 1    
    16    8    9 1    
    17    8   79 1    
    18    8   80 1    
    19    9   10 ar   
    20    9   14 ar   
    21   10   11 ar   
    22   10   81 1    
    23   11   12 ar   
    24   11   71 1    
    25   12   13 ar   
    26   12   82 1    
    27   13   14 ar   
    28   13   15 1    
    29   14   83 1    
    30   15   16 1    
    31   15   84 1    
    32   15   85 1    
    33   16   17 1    
    34   17   18 1    
    35   17   86 1    
    36   17   87 1    
    37   18   19 1    
    38   18   37 1    
    39   18   88 1    
    40   19   20 am   BACKBONE|DICT|INTERRES
    41   19   89 1    
    42   20   21 2    
    43   20   22 1    
    44   22   23 1    
    45   22   24 1    
    46   22   90 1    
    47   23   91 1    
    48   23   92 1    
    49   23   93 1    
    50   24   25 am   BACKBONE|DICT|INTERRES
    51   24   94 1    
    52   25   26 2    
    53   25   27 1    
    54   27   28 1    
    55   27   29 1    
    56   27   95 1    
    57   28   96 1    
    58   28   97 1    
    59   28   98 1    
    60   29   30 am   BACKBONE|DICT|INTERRES
    61   29   99 1    
    62   30   31 2    
    63   30   32 1    
    64   32   33 1    
    65   32   34 1    
    66   32  100 1    
    67   33  101 1    
    68   33  102 1    
    69   33  103 1    
    70   34   35 am   BACKBONE|DICT|INTERRES
    71   34  104 1    
    72   35   36 2    
    73   37   38 2    
    74   37   39 am   BACKBONE|DICT|INTERRES
    75   39   40 1    
    76   39  105 1    
    77   40   41 1    
    78   40   42 1    
    79   40  106 1    
    80   41  107 1    
    81   41  108 1    
    82   41  109 1    
    83   42   43 2    
    84   42   44 am   BACKBONE|DICT|INTERRES
    85   44   45 1    
    86   44  110 1    
    87   45   46 1    
    88   45   47 1    
    89   45  111 1    
    90   46  112 1    
    91   46  113 1    
    92   46  114 1    
    93   47   48 2    
    94   47   49 am   BACKBONE|DICT|INTERRES
    95   49   50 1    
    96   49  115 1    
    97   50   51 1    
    98   50   52 1    
    99   50  116 1    
   100   51  117 1    
   101   51  118 1    
   102   51  119 1    
   103   52   53 2    
   104   52   54 am   BACKBONE|DICT|INTERRES
   105   54   55 1    
   106   54  120 1    
   107   55   56 1    
   108   55   57 1    
   109   55  121 1    
   110   56  122 1    
   111   56  123 1    
   112   56  124 1    
   113   57   58 2    
   114   57   59 am   BACKBONE|DICT|INTERRES
   115   59   60 1    
   116   59  125 1    
   117   60   61 1    
   118   60   62 1    
   119   60  126 1    
   120   61  127 1    
   121   61  128 1    
   122   61  129 1    
   123   62   63 2    
   124   62   64 am   BACKBONE|DICT|INTERRES
   125   64   65 1    
   126   64  130 1    
   127   65   66 1    
   128   65   69 1    
   129   65  131 1    
   130   66   67 am   BACKBONE|DICT|INTERRES
   131   66   68 2    
   132   67  132 1    
   133   67  133 1    
   134   69   70 1    
   135   69  134 1    
   136   69  135 1    
   137   70   71 1    
   138   71  136 1    
   139   71  137 1    
@<TRIPOS>SUBSTRUCTURE
     1 UNK         1 GROUP             0       ****    0 ROOT    
