@<TRIPOS>MOLECULE
3R137
137   139    1
SMALL
USER_CHARGES


@<TRIPOS>ATOM
      1 CA         26.6632   -2.9609    3.0047 C.3       0 UNK        -0.2020 
      2 C          26.6634   -3.4006    1.5483 C.2       0 UNK         0.4855 
      3 O          25.9875   -4.3713    1.2073 O.2       0 UNK        -0.5197 
      4 N          27.4118   -2.6860    0.6941 N.am      1 UNK        -0.4892 
      5 CA         27.5817   -2.9417   -0.7479 C.3       1 UNK         0.0835 
      6 C6         28.3037   -4.2830   -1.0624 C.3       12 UNK        -0.0855 
      7 S7         29.9320   -4.4112   -0.2446 S.3       12 UNK        -0.2931 
      8 C8         31.0885   -4.2703   -1.6537 C.3       12 UNK         0.0378 
      9 C9         31.1280   -2.8994   -2.3318 C.ar      12 UNK        -0.0802 
     10 C10        31.4491   -2.8252   -3.6907 C.ar      12 UNK        -0.0944 
     11 C11        31.5372   -1.5907   -4.3483 C.ar      12 UNK        -0.0787 
     12 C12        31.3138   -0.4198   -3.6165 C.ar      12 UNK        -0.0862 
     13 C13        30.9657   -0.4721   -2.2625 C.ar      12 UNK        -0.0733 
     14 C14        30.8993   -1.7137   -1.6241 C.ar      12 UNK        -0.0832 
     15 C15        30.6810    0.8002   -1.4660 C.3       12 UNK         0.0240 
     16 S16        29.5335    1.9655   -2.2845 S.3       12 UNK        -0.2522 
     17 C17        28.1049    0.9147   -2.7241 C.3       12 UNK        -0.0967 
     18 CA         28.0551    0.6607   -4.2522 C.3       5 UNK         0.0660 
     19 N          27.5324   -0.6648   -4.5917 N.am      5 UNK        -0.4015 
     20 C          27.7881   -1.2924   -5.7495 C.2       4 UNK         0.4946 
     21 O          28.4904   -0.8184   -6.6399 O.2       4 UNK        -0.5353 
     22 CA         27.1039   -2.6495   -5.9757 C.3       4 UNK         0.0277 
     23 CB         27.9054   -3.7814   -5.3156 C.3       4 UNK        -0.1981 
     24 N          25.7277   -2.6526   -5.4747 N.am      4 UNK        -0.4209 
     25 C          24.7244   -1.9903   -6.0717 C.2       3 UNK         0.4942 
     26 O          24.8493   -1.3820   -7.1338 O.2       3 UNK        -0.5208 
     27 CA         23.3584   -1.9653   -5.3616 C.3       3 UNK         0.0250 
     28 CB         22.4591   -3.0927   -5.8930 C.3       3 UNK        -0.1990 
     29 N          23.4309   -2.0526   -3.9008 N.am      3 UNK        -0.4232 
     30 C          24.0902   -1.2075   -3.0960 C.2       2 UNK         0.4993 
     31 O          24.7398   -0.2418   -3.5014 O.2       2 UNK        -0.5286 
     32 CA         24.0744   -1.5133   -1.5867 C.3       2 UNK         0.0209 
     33 CB         23.0797   -2.6231   -1.1749 C.3       2 UNK        -0.1931 
     34 N          25.4138   -1.8321   -1.0764 N.am      2 UNK        -0.4546 
     35 C          26.2642   -2.7643   -1.5392 C.2       1 UNK         0.5154 
     36 O          26.0477   -3.4473   -2.5430 O.2       1 UNK        -0.5181 
     37 C          27.3254    1.7772   -5.0225 C.2       5 UNK         0.5014 
     38 O          27.9618    2.7498   -5.4252 O.2       5 UNK        -0.5248 
     39 N          26.0254    1.5939   -5.2950 N.am      6 UNK        -0.4434 
     40 CA         25.2471    2.4461   -6.2015 C.3       6 UNK         0.0363 
     41 CB         23.7699    2.0274   -6.1517 C.3       6 UNK        -0.1936 
     42 C          25.7652    2.4285   -7.6559 C.2       6 UNK         0.5081 
     43 O          25.5461    3.3966   -8.3839 O.2       6 UNK        -0.5248 
     44 N          26.4522    1.3456   -8.0441 N.am      7 UNK        -0.4718 
     45 CA         27.0881    1.1604   -9.3475 C.3       7 UNK         0.0273 
     46 CB         26.8783   -0.2988   -9.7892 C.3       7 UNK        -0.1935 
     47 C          28.5863    1.5214   -9.3471 C.2       7 UNK         0.5018 
     48 O          29.2439    1.2933  -10.3639 O.2       7 UNK        -0.5186 
     49 N          29.1329    2.0481   -8.2398 N.am      8 UNK        -0.4240 
     50 CA         30.5339    2.4788   -8.1435 C.3       8 UNK         0.0235 
     51 CB         30.8543    2.8433   -6.6846 C.3       8 UNK        -0.2000 
     52 C          30.8287    3.6739   -9.0804 C.2       8 UNK         0.4941 
     53 O          29.9321    4.4864   -9.3093 O.2       8 UNK        -0.5273 
     54 N          32.0502    3.8305   -9.6126 N.am      9 UNK        -0.4262 
     55 CA         33.2521    3.0168   -9.3950 C.3       9 UNK         0.0264 
     56 CB         34.4861    3.8976   -9.6565 C.3       9 UNK        -0.1955 
     57 C          33.3232    1.7366  -10.2491 C.2       9 UNK         0.5031 
     58 O          34.2286    0.9331  -10.0230 O.2       9 UNK        -0.5390 
     59 N          32.3962    1.5554  -11.2026 N.am      10 UNK        -0.4204 
     60 CA         32.3210    0.3700  -12.0668 C.3       10 UNK         0.0237 
     61 CB         31.2982    0.6068  -13.1902 C.3       10 UNK        -0.1985 
     62 C          31.9960   -0.9191  -11.2905 C.2       10 UNK         0.4970 
     63 O          32.5722   -1.9656  -11.5889 O.2       10 UNK        -0.4914 
     64 N          31.1033   -0.8027  -10.2992 N.am      11 UNK        -0.4285 
     65 CA         30.6901   -1.8607   -9.3652 C.3       11 UNK         0.1007 
     66 C          29.8136   -2.9816  -10.0068 C.2       11 UNK         0.5703 
     67 N          29.2306   -2.7661  -11.1809 N.am      11 UNK        -0.7361 
     68 O          29.6321   -4.0522   -9.4329 O.2       11 UNK        -0.4986 
     69 C69        31.8863   -2.3858   -8.5152 C.3       12 UNK        -0.0947 
     70 S70        31.3971   -2.9159   -6.8414 S.3       12 UNK        -0.2240 
     71 C71        31.9012   -1.4810   -5.8315 C.3       12 UNK         0.0194 
     72 H72        25.6513   -2.7075    3.3201 H         1 UNK         0.0906 
     73 H73        27.2980   -2.0906    3.1704 H         1 UNK         0.0906 
     74 H74        27.0254   -3.7692    3.6394 H         1 UNK         0.0906 
     75 H75        27.9462   -1.9082    1.0565 H         1 UNK         0.3140 
     76 H76        28.2246   -2.1440   -1.1160 H         1 UNK         0.1085 
     77 H77        28.4446   -4.4060   -2.1364 H         1 UNK         0.0836 
     78 H78        27.6925   -5.1296   -0.7458 H         1 UNK         0.0836 
     79 H79        30.8401   -5.0450   -2.3812 H         1 UNK         0.0731 
     80 H80        32.0929   -4.4992   -1.2953 H         1 UNK         0.0731 
     81 H81        31.6453   -3.7397   -4.2324 H         1 UNK         0.1312 
     82 H82        31.3963    0.5408   -4.1058 H         1 UNK         0.1406 
     83 H83        30.6725   -1.7552   -0.5679 H         1 UNK         0.1631 
     84 H84        31.6249    1.3139   -1.2798 H         1 UNK         0.0717 
     85 H85        30.2684    0.5548   -0.4861 H         1 UNK         0.0717 
     86 H86        28.1932   -0.0254   -2.1811 H         1 UNK         0.0934 
     87 H87        27.1842    1.3758   -2.3602 H         1 UNK         0.0934 
     88 H88        29.0782    0.6756   -4.6283 H         1 UNK         0.0739 
     89 H89        26.8587   -1.0678   -3.9561 H         1 UNK         0.3093 
     90 H90        27.0771   -2.8387   -7.0514 H         1 UNK         0.0818 
     91 H91        28.8724   -3.9025   -5.8022 H         1 UNK         0.0819 
     92 H92        28.0995   -3.5793   -4.2634 H         1 UNK         0.0819 
     93 H93        27.3865   -4.7371   -5.3879 H         1 UNK         0.0819 
     94 H94        25.5633   -3.1067   -4.5819 H         1 UNK         0.3041 
     95 H95        22.8846   -1.0124   -5.6026 H         1 UNK         0.0784 
     96 H96        22.3642   -3.0371   -6.9785 H         1 UNK         0.0793 
     97 H97        22.8605   -4.0777   -5.6511 H         1 UNK         0.0793 
     98 H98        21.4526   -3.0277   -5.4791 H         1 UNK         0.0793 
     99 H99        22.9572   -2.8351   -3.4733 H         1 UNK         0.3024 
    100 H100       23.7608   -0.5883   -1.0996 H         1 UNK         0.1171 
    101 H101       23.0511   -2.7333   -0.0906 H         1 UNK         0.0786 
    102 H102       22.0636   -2.3870   -1.4946 H         1 UNK         0.0786 
    103 H103       23.3481   -3.5954   -1.5905 H         1 UNK         0.0786 
    104 H104       25.7017   -1.3119   -0.2595 H         1 UNK         0.2977 
    105 H105       25.5396    0.8161   -4.8536 H         1 UNK         0.3127 
    106 H106       25.3251    3.4725   -5.8368 H         1 UNK         0.0770 
    107 H107       23.6223    1.0322   -6.5702 H         1 UNK         0.0814 
    108 H108       23.1525    2.7157   -6.7303 H         1 UNK         0.0814 
    109 H109       23.3872    2.0260   -5.1309 H         1 UNK         0.0814 
    110 H110       26.5769    0.5909   -7.3819 H         1 UNK         0.2983 
    111 H111       26.6087    1.8073  -10.0851 H         1 UNK         0.0947 
    112 H112       27.3747   -0.9996   -9.1174 H         1 UNK         0.0806 
    113 H113       27.2738   -0.4694  -10.7910 H         1 UNK         0.0806 
    114 H114       25.8193   -0.5567   -9.8131 H         1 UNK         0.0806 
    115 H115       28.5424    2.2322   -7.4375 H         1 UNK         0.3000 
    116 H116       31.1447    1.6216   -8.4258 H         1 UNK         0.0850 
    117 H117       30.2675    3.6991   -6.3487 H         1 UNK         0.0810 
    118 H118       30.6460    2.0103   -6.0138 H         1 UNK         0.0810 
    119 H119       31.9040    3.1058   -6.5556 H         1 UNK         0.0810 
    120 H120       32.1835    4.6270  -10.2193 H         1 UNK         0.3040 
    121 H121       33.2925    2.7054   -8.3508 H         1 UNK         0.0766 
    122 H122       34.4929    4.7749   -9.0091 H         1 UNK         0.0812 
    123 H123       34.5259    4.2423  -10.6907 H         1 UNK         0.0812 
    124 H124       35.4093    3.3498   -9.4612 H         1 UNK         0.0812 
    125 H125       31.6744    2.2530  -11.3181 H         1 UNK         0.3205 
    126 H126       33.3018    0.2341  -12.5277 H         1 UNK         0.0754 
    127 H127       31.2424   -0.2568  -13.8545 H         1 UNK         0.0769 
    128 H128       31.5739    1.4661  -13.8019 H         1 UNK         0.0769 
    129 H129       30.2955    0.7821  -12.7991 H         1 UNK         0.0769 
    130 H130       30.5888    0.0718  -10.2235 H         1 UNK         0.2981 
    131 H131       30.0121   -1.3449   -8.6867 H         1 UNK         0.0541 
    132 H132       28.6608   -3.4904  -11.5878 H         1 UNK         0.3459 
    133 H133       29.3639   -1.8936  -11.6651 H         1 UNK         0.3459 
    134 H134       32.3839   -3.2169   -9.0175 H         1 UNK         0.0612 
    135 H135       32.6471   -1.6106   -8.4090 H         1 UNK         0.0612 
    136 H136       32.9800   -1.3462   -5.9179 H         1 UNK         0.0624 
    137 H137       31.4342   -0.5916   -6.2587 H         1 UNK         0.0624 
@<TRIPOS>BOND
     1    1    2 1    
     2    1   72 1    
     3    1   73 1    
     4    1   74 1    
     5    2    3 2    
     6    2    4 am   BACKBONE|DICT|INTERRES
     7    4    5 1    
     8    4   75 1    
     9    5    6 1    
    10    5   35 1    
    11    5   76 1    
    12    6    7 1    
    13    6   77 1    
    14    6   78 1    
    15    7    8 1    
    16    8    9 1    
    17    8   79 1    
    18    8   80 1    
    19    9   10 ar   
    20    9   14 ar   
    21   10   11 ar   
    22   10   81 1    
    23   11   12 ar   
    24   11   71 1    
    25   12   13 ar   
    26   12   82 1    
    27   13   14 ar   
    28   13   15 1    
    29   14   83 1    
    30   15   16 1    
    31   15   84 1    
    32   15   85 1    
    33   16   17 1    
    34   17   18 1    
    35   17   86 1    
    36   17   87 1    
    37   18   19 1    
    38   18   37 1    
    39   18   88 1    
    40   19   20 am   BACKBONE|DICT|INTERRES
    41   19   89 1    
    42   20   21 2    
    43   20   22 1    
    44   22   23 1    
    45   22   24 1    
    46   22   90 1    
    47   23   91 1    
    48   23   92 1    
    49   23   93 1    
    50   24   25 am   BACKBONE|DICT|INTERRES
    51   24   94 1    
    52   25   26 2    
    53   25   27 1    
    54   27   28 1    
    55   27   29 1    
    56   27   95 1    
    57   28   96 1    
    58   28   97 1    
    59   28   98 1    
    60   29   30 am   BACKBONE|DICT|INTERRES
    61   29   99 1    
    62   30   31 2    
    63   30   32 1    
    64   32   33 1    
    65   32   34 1    
    66   32  100 1    
    67   33  101 1    
    68   33  102 1    
    69   33  103 1    
    70   34   35 am   BACKBONE|DICT|INTERRES
    71   34  104 1    
    72   35   36 2    
    73   37   38 2    
    74   37   39 am   BACKBONE|DICT|INTERRES
    75   39   40 1    
    76   39  105 1    
    77   40   41 1    
    78   40   42 1    
    79   40  106 1    
    80   41  107 1    
    81   41  108 1    
    82   41  109 1    
    83   42   43 2    
    84   42   44 am   BACKBONE|DICT|INTERRES
    85   44   45 1    
    86   44  110 1    
    87   45   46 1    
    88   45   47 1    
    89   45  111 1    
    90   46  112 1    
    91   46  113 1    
    92   46  114 1    
    93   47   48 2    
    94   47   49 am   BACKBONE|DICT|INTERRES
    95   49   50 1    
    96   49  115 1    
    97   50   51 1    
    98   50   52 1    
    99   50  116 1    
   100   51  117 1    
   101   51  118 1    
   102   51  119 1    
   103   52   53 2    
   104   52   54 am   BACKBONE|DICT|INTERRES
   105   54   55 1    
   106   54  120 1    
   107   55   56 1    
   108   55   57 1    
   109   55  121 1    
   110   56  122 1    
   111   56  123 1    
   112   56  124 1    
   113   57   58 2    
   114   57   59 am   BACKBONE|DICT|INTERRES
   115   59   60 1    
   116   59  125 1    
   117   60   61 1    
   118   60   62 1    
   119   60  126 1    
   120   61  127 1    
   121   61  128 1    
   122   61  129 1    
   123   62   63 2    
   124   62   64 am   BACKBONE|DICT|INTERRES
   125   64   65 1    
   126   64  130 1    
   127   65   66 1    
   128   65   69 1    
   129   65  131 1    
   130   66   67 am   BACKBONE|DICT|INTERRES
   131   66   68 2    
   132   67  132 1    
   133   67  133 1    
   134   69   70 1    
   135   69  134 1    
   136   69  135 1    
   137   70   71 1    
   138   71  136 1    
   139   71  137 1    
@<TRIPOS>SUBSTRUCTURE
     1 UNK         1 GROUP             0       ****    0 ROOT    
