@<TRIPOS>MOLECULE
3R137
137   139    1
SMALL
USER_CHARGES


@<TRIPOS>ATOM
      1 CA         24.2762   -6.3202   -2.2121 C.3       0 UNK        -0.2020 
      2 C          24.8851   -5.1179   -1.5075 C.2       0 UNK         0.4855 
      3 O          24.1513   -4.2402   -1.0520 O.2       0 UNK        -0.5197 
      4 N          26.2222   -5.0681   -1.4299 N.am      1 UNK        -0.4892 
      5 CA         27.0274   -3.9949   -0.8321 C.3       1 UNK         0.0835 
      6 C6         28.5336   -4.3497   -0.9214 C.3       12 UNK        -0.0855 
      7 S7         29.5801   -3.3089    0.1478 S.3       12 UNK        -0.2931 
      8 C8         31.1584   -3.3336   -0.7679 C.3       12 UNK         0.0378 
      9 C9         31.1238   -2.4868   -2.0355 C.ar      12 UNK        -0.0802 
     10 C10        31.3569   -3.0668   -3.2881 C.ar      12 UNK        -0.0944 
     11 C11        31.3711   -2.2781   -4.4439 C.ar      12 UNK        -0.0787 
     12 C12        31.1477   -0.9039   -4.3401 C.ar      12 UNK        -0.0862 
     13 C13        30.8826   -0.3159   -3.1003 C.ar      12 UNK        -0.0733 
     14 C14        30.8869   -1.1115   -1.9510 C.ar      12 UNK        -0.0832 
     15 C15        30.5686    1.1725   -2.9910 C.3       12 UNK         0.0240 
     16 S16        29.3760    1.7655   -4.2413 S.3       12 UNK        -0.2522 
     17 C17        28.0235    0.5451   -4.1317 C.3       12 UNK        -0.0967 
     18 CA         27.8092   -0.2296   -5.4634 C.3       5 UNK         0.0660 
     19 N          27.1588   -1.5221   -5.2499 N.am      5 UNK        -0.4015 
     20 C          26.8729   -2.4477   -6.1791 C.2       4 UNK         0.4946 
     21 O          27.2113   -2.3787   -7.3597 O.2       4 UNK        -0.5353 
     22 CA         26.0382   -3.6524   -5.7138 C.3       4 UNK         0.0277 
     23 CB         26.9356   -4.7584   -5.1325 C.3       4 UNK        -0.1981 
     24 N          25.0318   -3.2480   -4.7291 N.am      4 UNK        -0.4209 
     25 C          23.8688   -2.6561   -5.0427 C.2       3 UNK         0.4942 
     26 O          23.4621   -2.5168   -6.1963 O.2       3 UNK        -0.5208 
     27 CA         23.0169   -2.1090   -3.8832 C.3       3 UNK         0.0250 
     28 CB         21.9272   -3.1163   -3.4828 C.3       3 UNK        -0.1990 
     29 N          23.8153   -1.7509   -2.7074 N.am      3 UNK        -0.4232 
     30 C          24.5947   -0.6607   -2.6362 C.2       2 UNK         0.4993 
     31 O          24.6877    0.1728   -3.5395 O.2       2 UNK        -0.5286 
     32 CA         25.4594   -0.4994   -1.3698 C.3       2 UNK         0.0209 
     33 CB         24.6830    0.2595   -0.2825 C.3       2 UNK        -0.1931 
     34 N          25.9541   -1.7698   -0.8230 N.am      2 UNK        -0.4546 
     35 C          26.7133   -2.6413   -1.5019 C.2       1 UNK         0.5154 
     36 O          27.0931   -2.4429   -2.6546 O.2       1 UNK        -0.5181 
     37 C          27.0472    0.6148   -6.4990 C.2       5 UNK         0.5014 
     38 O          27.5901    0.8791   -7.5731 O.2       5 UNK        -0.5248 
     39 N          25.8060    1.0048   -6.1631 N.am      6 UNK        -0.4434 
     40 CA         24.9080    1.8492   -6.9593 C.3       6 UNK         0.0363 
     41 CB         24.3485    1.0512   -8.1587 C.3       6 UNK        -0.1936 
     42 C          25.5757    3.1856   -7.3497 C.2       6 UNK         0.5081 
     43 O          25.7045    4.0650   -6.4979 O.2       6 UNK        -0.5248 
     44 N          26.0149    3.3031   -8.6104 N.am      7 UNK        -0.4718 
     45 CA         26.7655    4.4431   -9.1498 C.3       7 UNK         0.0273 
     46 CB         26.5794    4.4694  -10.6773 C.3       7 UNK        -0.1935 
     47 C          28.2670    4.4345   -8.7879 C.2       7 UNK         0.5018 
     48 O          28.9709    5.3722   -9.1615 O.2       7 UNK        -0.5186 
     49 N          28.7372    3.3725   -8.1171 N.am      8 UNK        -0.4240 
     50 CA         30.1060    3.0675   -7.6747 C.3       8 UNK         0.0235 
     51 CB         30.7563    4.2276   -6.8957 C.3       8 UNK        -0.2000 
     52 C          31.0269    2.5213   -8.7752 C.2       8 UNK         0.4941 
     53 O          32.0605    1.9367   -8.4471 O.2       8 UNK        -0.5273 
     54 N          30.6233    2.6380  -10.0480 N.am      9 UNK        -0.4262 
     55 CA         31.3403    2.1458  -11.2319 C.3       9 UNK         0.0264 
     56 CB         30.5675    2.5707  -12.4916 C.3       9 UNK        -0.1955 
     57 C          31.6034    0.6256  -11.2483 C.2       9 UNK         0.5031 
     58 O          32.4808    0.1768  -11.9869 O.2       9 UNK        -0.5390 
     59 N          30.8585   -0.1334  -10.4323 N.am      10 UNK        -0.4204 
     60 CA         31.0389   -1.5669  -10.2047 C.3       10 UNK         0.0237 
     61 CB         29.8495   -2.0943   -9.3864 C.3       10 UNK        -0.1985 
     62 C          32.3692   -1.9322   -9.5172 C.2       10 UNK         0.4970 
     63 O          32.8654   -3.0337   -9.7573 O.2       10 UNK        -0.4914 
     64 N          32.9152   -1.0280   -8.6903 N.am      11 UNK        -0.4285 
     65 CA         34.1957   -1.2069   -7.9820 C.3       11 UNK         0.1007 
     66 C          35.1802   -0.0212   -8.1814 C.2       11 UNK         0.5703 
     67 N          34.7419    1.1734   -8.5586 N.am      11 UNK        -0.7361 
     68 O          36.3843   -0.1968   -8.0093 O.2       11 UNK        -0.4986 
     69 C69        33.9943   -1.5150   -6.4725 C.3       12 UNK        -0.0947 
     70 S70        33.3564   -3.1978   -6.1618 S.3       12 UNK        -0.2240 
     71 C71        31.5948   -2.9085   -5.8106 C.3       12 UNK         0.0194 
     72 H72        23.4626   -6.7326   -1.6159 H         1 UNK         0.0906 
     73 H73        23.8742   -6.0249   -3.1808 H         1 UNK         0.0906 
     74 H74        25.0085   -7.1107   -2.3746 H         1 UNK         0.0906 
     75 H75        26.7553   -5.8228   -1.8378 H         1 UNK         0.3140 
     76 H76        26.7500   -3.9348    0.2225 H         1 UNK         0.1085 
     77 H77        28.8846   -4.2969   -1.9542 H         1 UNK         0.0836 
     78 H78        28.6923   -5.3823   -0.6060 H         1 UNK         0.0836 
     79 H79        31.4254   -4.3672   -0.9939 H         1 UNK         0.0731 
     80 H80        31.9455   -2.9520   -0.1161 H         1 UNK         0.0731 
     81 H81        31.5361   -4.1304   -3.3667 H         1 UNK         0.1312 
     82 H82        31.1515   -0.2914   -5.2310 H         1 UNK         0.1406 
     83 H83        30.6952   -0.6653   -0.9844 H         1 UNK         0.1631 
     84 H84        31.4956    1.7379   -3.0924 H         1 UNK         0.0717 
     85 H85        30.1682    1.4076   -2.0036 H         1 UNK         0.0717 
     86 H86        28.2473   -0.1534   -3.3256 H         1 UNK         0.0934 
     87 H87        27.1232    1.0681   -3.8092 H         1 UNK         0.0934 
     88 H88        28.7858   -0.4612   -5.8914 H         1 UNK         0.0739 
     89 H89        26.9458   -1.7531   -4.2815 H         1 UNK         0.3093 
     90 H90        25.5274   -4.0623   -6.5881 H         1 UNK         0.0818 
     91 H91        27.5190   -4.4120   -4.2799 H         1 UNK         0.0819 
     92 H92        26.3480   -5.6186   -4.8119 H         1 UNK         0.0819 
     93 H93        27.6441   -5.1121   -5.8827 H         1 UNK         0.0819 
     94 H94        25.3156   -3.2712   -3.7595 H         1 UNK         0.3041 
     95 H95        22.5203   -1.2054   -4.2441 H         1 UNK         0.0784 
     96 H96        21.2903   -3.3594   -4.3345 H         1 UNK         0.0793 
     97 H97        22.3505   -4.0512   -3.1169 H         1 UNK         0.0793 
     98 H98        21.2823   -2.7128   -2.7020 H         1 UNK         0.0793 
     99 H99        23.8265   -2.4162   -1.9395 H         1 UNK         0.3024 
    100 H100       26.3299    0.0989   -1.6450 H         1 UNK         0.1171 
    101 H101       25.3130    0.4695    0.5821 H         1 UNK         0.0786 
    102 H102       24.3221    1.2182   -0.6582 H         1 UNK         0.0786 
    103 H103       23.8146   -0.3036    0.0621 H         1 UNK         0.0786 
    104 H104       25.6340   -2.0213    0.1016 H         1 UNK         0.2977 
    105 H105       25.4488    0.7338   -5.2488 H         1 UNK         0.3127 
    106 H106       24.0672    2.1036   -6.3121 H         1 UNK         0.0770 
    107 H107       25.1347    0.6777   -8.8156 H         1 UNK         0.0814 
    108 H108       23.6731    1.6625   -8.7588 H         1 UNK         0.0814 
    109 H109       23.7780    0.1878   -7.8151 H         1 UNK         0.0814 
    110 H110       25.8931    2.5109   -9.2255 H         1 UNK         0.2983 
    111 H111       26.3449    5.3633   -8.7382 H         1 UNK         0.0947 
    112 H112       27.0791    5.3323  -11.1199 H         1 UNK         0.0806 
    113 H113       25.5254    4.5381  -10.9471 H         1 UNK         0.0806 
    114 H114       26.9901    3.5769  -11.1510 H         1 UNK         0.0806 
    115 H115       28.0782    2.6189   -7.9271 H         1 UNK         0.3000 
    116 H116       29.9920    2.2385   -6.9776 H         1 UNK         0.0850 
    117 H117       31.6957    3.9081   -6.4426 H         1 UNK         0.0810 
    118 H118       30.1102    4.5734   -6.0888 H         1 UNK         0.0810 
    119 H119       30.9833    5.0783   -7.5382 H         1 UNK         0.0810 
    120 H120       29.7665    3.1443  -10.2170 H         1 UNK         0.3040 
    121 H121       32.3160    2.6359  -11.2457 H         1 UNK         0.0766 
    122 H122       30.4616    3.6543  -12.5471 H         1 UNK         0.0812 
    123 H123       29.5690    2.1325  -12.5194 H         1 UNK         0.0812 
    124 H124       31.0881    2.2524  -13.3960 H         1 UNK         0.0812 
    125 H125       30.1500    0.3269   -9.8796 H         1 UNK         0.3205 
    126 H126       31.0304   -2.0618  -11.1782 H         1 UNK         0.0754 
    127 H127       29.9588   -3.1579   -9.1697 H         1 UNK         0.0769 
    128 H128       28.9099   -1.9718   -9.9258 H         1 UNK         0.0769 
    129 H129       29.7508   -1.5755   -8.4319 H         1 UNK         0.0769 
    130 H130       32.4706   -0.1248   -8.5791 H         1 UNK         0.2981 
    131 H131       34.7227   -2.0579   -8.4177 H         1 UNK         0.0541 
    132 H132       35.4140    1.9116   -8.6907 H         1 UNK         0.3459 
    133 H133       33.7497    1.3900   -8.6153 H         1 UNK         0.3459 
    134 H134       34.9439   -1.4519   -5.9377 H         1 UNK         0.0612 
    135 H135       33.3481   -0.7673   -6.0139 H         1 UNK         0.0612 
    136 H136       31.0670   -3.8620   -5.8595 H         1 UNK         0.0624 
    137 H137       31.1668   -2.2856   -6.5962 H         1 UNK         0.0624 
@<TRIPOS>BOND
     1    1    2 1    
     2    1   72 1    
     3    1   73 1    
     4    1   74 1    
     5    2    3 2    
     6    2    4 am   BACKBONE|DICT|INTERRES
     7    4    5 1    
     8    4   75 1    
     9    5    6 1    
    10    5   35 1    
    11    5   76 1    
    12    6    7 1    
    13    6   77 1    
    14    6   78 1    
    15    7    8 1    
    16    8    9 1    
    17    8   79 1    
    18    8   80 1    
    19    9   10 ar   
    20    9   14 ar   
    21   10   11 ar   
    22   10   81 1    
    23   11   12 ar   
    24   11   71 1    
    25   12   13 ar   
    26   12   82 1    
    27   13   14 ar   
    28   13   15 1    
    29   14   83 1    
    30   15   16 1    
    31   15   84 1    
    32   15   85 1    
    33   16   17 1    
    34   17   18 1    
    35   17   86 1    
    36   17   87 1    
    37   18   19 1    
    38   18   37 1    
    39   18   88 1    
    40   19   20 am   BACKBONE|DICT|INTERRES
    41   19   89 1    
    42   20   21 2    
    43   20   22 1    
    44   22   23 1    
    45   22   24 1    
    46   22   90 1    
    47   23   91 1    
    48   23   92 1    
    49   23   93 1    
    50   24   25 am   BACKBONE|DICT|INTERRES
    51   24   94 1    
    52   25   26 2    
    53   25   27 1    
    54   27   28 1    
    55   27   29 1    
    56   27   95 1    
    57   28   96 1    
    58   28   97 1    
    59   28   98 1    
    60   29   30 am   BACKBONE|DICT|INTERRES
    61   29   99 1    
    62   30   31 2    
    63   30   32 1    
    64   32   33 1    
    65   32   34 1    
    66   32  100 1    
    67   33  101 1    
    68   33  102 1    
    69   33  103 1    
    70   34   35 am   BACKBONE|DICT|INTERRES
    71   34  104 1    
    72   35   36 2    
    73   37   38 2    
    74   37   39 am   BACKBONE|DICT|INTERRES
    75   39   40 1    
    76   39  105 1    
    77   40   41 1    
    78   40   42 1    
    79   40  106 1    
    80   41  107 1    
    81   41  108 1    
    82   41  109 1    
    83   42   43 2    
    84   42   44 am   BACKBONE|DICT|INTERRES
    85   44   45 1    
    86   44  110 1    
    87   45   46 1    
    88   45   47 1    
    89   45  111 1    
    90   46  112 1    
    91   46  113 1    
    92   46  114 1    
    93   47   48 2    
    94   47   49 am   BACKBONE|DICT|INTERRES
    95   49   50 1    
    96   49  115 1    
    97   50   51 1    
    98   50   52 1    
    99   50  116 1    
   100   51  117 1    
   101   51  118 1    
   102   51  119 1    
   103   52   53 2    
   104   52   54 am   BACKBONE|DICT|INTERRES
   105   54   55 1    
   106   54  120 1    
   107   55   56 1    
   108   55   57 1    
   109   55  121 1    
   110   56  122 1    
   111   56  123 1    
   112   56  124 1    
   113   57   58 2    
   114   57   59 am   BACKBONE|DICT|INTERRES
   115   59   60 1    
   116   59  125 1    
   117   60   61 1    
   118   60   62 1    
   119   60  126 1    
   120   61  127 1    
   121   61  128 1    
   122   61  129 1    
   123   62   63 2    
   124   62   64 am   BACKBONE|DICT|INTERRES
   125   64   65 1    
   126   64  130 1    
   127   65   66 1    
   128   65   69 1    
   129   65  131 1    
   130   66   67 am   BACKBONE|DICT|INTERRES
   131   66   68 2    
   132   67  132 1    
   133   67  133 1    
   134   69   70 1    
   135   69  134 1    
   136   69  135 1    
   137   70   71 1    
   138   71  136 1    
   139   71  137 1    
@<TRIPOS>SUBSTRUCTURE
     1 UNK         1 GROUP             0       ****    0 ROOT    
