@<TRIPOS>MOLECULE
3R137
137   139    1
SMALL
USER_CHARGES


@<TRIPOS>ATOM
      1 CA         30.9631   -5.8398   -6.1015 C.3       0 UNK        -0.2020 
      2 C          29.7211   -6.1597   -5.2821 C.2       0 UNK         0.4855 
      3 O          29.0906   -7.1939   -5.5002 O.2       0 UNK        -0.5197 
      4 N          29.3672   -5.2753   -4.3410 N.am      1 UNK        -0.4892 
      5 CA         28.1946   -5.3839   -3.4620 C.3       1 UNK         0.0835 
      6 C6         28.2090   -4.2920   -2.3618 C.3       12 UNK        -0.0855 
      7 S7         29.5079   -4.5448   -1.1092 S.3       12 UNK        -0.2931 
      8 C8         30.8834   -3.5223   -1.7398 C.3       12 UNK         0.0378 
      9 C9         30.6529   -2.0101   -1.8047 C.ar      12 UNK        -0.0802 
     10 C10        31.6021   -1.2453   -2.4876 C.ar      12 UNK        -0.0944 
     11 C11        31.4946    0.1445   -2.5531 C.ar      12 UNK        -0.0787 
     12 C12        30.4128    0.7806   -1.9411 C.ar      12 UNK        -0.0862 
     13 C13        29.4409    0.0345   -1.2660 C.ar      12 UNK        -0.0733 
     14 C14        29.5712   -1.3580   -1.1922 C.ar      12 UNK        -0.0832 
     15 C15        28.2773    0.7376   -0.5746 C.3       12 UNK         0.0240 
     16 S16        26.7535    0.7550   -1.5794 S.3       12 UNK        -0.2522 
     17 C17        27.2089    1.8538   -2.9641 C.3       12 UNK        -0.0967 
     18 CA         27.2005    1.0731   -4.3077 C.3       5 UNK         0.0660 
     19 N          25.8451    0.7670   -4.7856 N.am      5 UNK        -0.4015 
     20 C          24.9611    1.6412   -5.2988 C.2       4 UNK         0.4946 
     21 O          25.2029    2.8404   -5.4498 O.2       4 UNK        -0.5353 
     22 CA         23.5761    1.1192   -5.7374 C.3       4 UNK         0.0277 
     23 CB         23.3839    1.2680   -7.2553 C.3       4 UNK        -0.1981 
     24 N          23.3274   -0.2738   -5.3701 N.am      4 UNK        -0.4209 
     25 C          22.9477   -0.6894   -4.1550 C.2       3 UNK         0.4942 
     26 O          22.6986    0.0700   -3.2182 O.2       3 UNK        -0.5208 
     27 CA         22.8353   -2.2113   -3.9409 C.3       3 UNK         0.0250 
     28 CB         21.3634   -2.6522   -4.0015 C.3       3 UNK        -0.1990 
     29 N          23.6226   -3.0363   -4.8697 N.am      3 UNK        -0.4232 
     30 C          24.9537   -2.9795   -5.0120 C.2       2 UNK         0.4993 
     31 O          25.6671   -2.1317   -4.4692 O.2       2 UNK        -0.5286 
     32 CA         25.6044   -4.0235   -5.9344 C.3       2 UNK         0.0209 
     33 CB         25.9329   -3.4045   -7.3017 C.3       2 UNK        -0.1931 
     34 N          26.8360   -4.5109   -5.3152 N.am      2 UNK        -0.4546 
     35 C          26.8589   -5.2914   -4.2258 C.2       1 UNK         0.5154 
     36 O          25.8691   -5.8819   -3.7891 O.2       1 UNK        -0.5181 
     37 C          28.0464    1.7000   -5.4359 C.2       5 UNK         0.5014 
     38 O          28.2194    1.0450   -6.4636 O.2       5 UNK        -0.5248 
     39 N          28.5393    2.9358   -5.2658 N.am      6 UNK        -0.4434 
     40 CA         29.4620    3.6310   -6.1769 C.3       6 UNK         0.0363 
     41 CB         29.8418    4.9873   -5.5616 C.3       6 UNK        -0.1936 
     42 C          28.9844    3.8097   -7.6332 C.2       6 UNK         0.5081 
     43 O          29.8004    4.1383   -8.4952 O.2       6 UNK        -0.5248 
     44 N          27.6935    3.5858   -7.9007 N.am      7 UNK        -0.4718 
     45 CA         27.1336    3.5648   -9.2496 C.3       7 UNK         0.0273 
     46 CB         25.6473    3.9426   -9.1707 C.3       7 UNK        -0.1935 
     47 C          27.3123    2.2165   -9.9779 C.2       7 UNK         0.5018 
     48 O          27.1086    2.1943  -11.1932 O.2       7 UNK        -0.5186 
     49 N          27.6462    1.1216   -9.2696 N.am      8 UNK        -0.4240 
     50 CA         27.6569   -0.2278   -9.8564 C.3       8 UNK         0.0235 
     51 CB         26.2254   -0.7981   -9.8586 C.3       8 UNK        -0.2000 
     52 C          28.6262   -1.2370   -9.2164 C.2       8 UNK         0.4941 
     53 O          29.0710   -2.1455   -9.9194 O.2       8 UNK        -0.5273 
     54 N          28.9419   -1.1128   -7.9204 N.am      9 UNK        -0.4262 
     55 CA         29.6915   -2.0947   -7.1212 C.3       9 UNK         0.0264 
     56 CB         29.3640   -1.8694   -5.6310 C.3       9 UNK        -0.1955 
     57 C          31.2125   -2.0817   -7.3798 C.2       9 UNK         0.5031 
     58 O          31.9928   -2.0865   -6.4270 O.2       9 UNK        -0.5390 
     59 N          31.6152   -2.0348   -8.6568 N.am      10 UNK        -0.4204 
     60 CA         32.9802   -1.9182   -9.1997 C.3       10 UNK         0.0237 
     61 CB         33.8708   -3.0996   -8.7664 C.3       10 UNK        -0.1985 
     62 C          33.6657   -0.5667   -8.9134 C.2       10 UNK         0.4970 
     63 O          34.3317   -0.0336   -9.8011 O.2       10 UNK        -0.4914 
     64 N          33.4674   -0.0227   -7.7087 N.am      11 UNK        -0.4285 
     65 CA         33.8602    1.3293   -7.2851 C.3       11 UNK         0.1007 
     66 C          33.0808    2.4885   -7.9738 C.2       11 UNK         0.5703 
     67 N          31.9868    2.2238   -8.6766 N.am      11 UNK        -0.7361 
     68 O          33.4752    3.6464   -7.8575 O.2       11 UNK        -0.4986 
     69 C69        33.8127    1.4608   -5.7389 C.3       12 UNK        -0.0947 
     70 S70        32.1648    1.0981   -5.0379 S.3       12 UNK        -0.2240 
     71 C71        32.5625    0.9479   -3.2755 C.3       12 UNK         0.0194 
     72 H72        31.4534   -4.9260   -5.7652 H         1 UNK         0.0906 
     73 H73        31.6824   -6.6549   -6.0258 H         1 UNK         0.0906 
     74 H74        30.6990   -5.7160   -7.1514 H         1 UNK         0.0906 
     75 H75        29.9481   -4.4660   -4.1858 H         1 UNK         0.3140 
     76 H76        28.2204   -6.3667   -2.9856 H         1 UNK         0.1085 
     77 H77        27.2632   -4.2856   -1.8147 H         1 UNK         0.0836 
     78 H78        28.2954   -3.2979   -2.8048 H         1 UNK         0.0836 
     79 H79        31.1684   -3.8885   -2.7262 H         1 UNK         0.0731 
     80 H80        31.7457   -3.7001   -1.0957 H         1 UNK         0.0731 
     81 H81        32.4412   -1.7333   -2.9656 H         1 UNK         0.1312 
     82 H82        30.3375    1.8582   -1.9841 H         1 UNK         0.1406 
     83 H83        28.8285   -1.9231   -0.6471 H         1 UNK         0.1631 
     84 H84        28.5490    1.7616   -0.3136 H         1 UNK         0.0717 
     85 H85        28.0628    0.2364    0.3704 H         1 UNK         0.0717 
     86 H86        26.5135    2.6945   -2.9914 H         1 UNK         0.0934 
     87 H87        28.1872    2.2812   -2.7490 H         1 UNK         0.0934 
     88 H88        27.6726    0.1067   -4.1239 H         1 UNK         0.0739 
     89 H89        25.5848   -0.2128   -4.7089 H         1 UNK         0.3093 
     90 H90        22.8272    1.7422   -5.2434 H         1 UNK         0.0818 
     91 H91        23.3282    2.3212   -7.5287 H         1 UNK         0.0819 
     92 H92        24.2032    0.8186   -7.8177 H         1 UNK         0.0819 
     93 H93        22.4530    0.8092   -7.5893 H         1 UNK         0.0819 
     94 H94        23.5031   -0.9718   -6.0775 H         1 UNK         0.3041 
     95 H95        23.2104   -2.4146   -2.9355 H         1 UNK         0.0784 
     96 H96        20.7539   -2.0793   -3.3009 H         1 UNK         0.0793 
     97 H97        20.9393   -2.5070   -4.9960 H         1 UNK         0.0793 
     98 H98        21.2513   -3.7039   -3.7371 H         1 UNK         0.0793 
     99 H99        23.1123   -3.7517   -5.3684 H         1 UNK         0.3024 
    100 H100       24.9243   -4.8667   -6.0767 H         1 UNK         0.1171 
    101 H101       25.0232   -3.0979   -7.8194 H         1 UNK         0.0786 
    102 H102       26.5638   -2.5216   -7.2007 H         1 UNK         0.0786 
    103 H103       26.4496   -4.1137   -7.9486 H         1 UNK         0.0786 
    104 H104       27.6928   -4.0552   -5.5863 H         1 UNK         0.2977 
    105 H105       28.2921    3.4354   -4.4248 H         1 UNK         0.3127 
    106 H106       30.3667    3.0251   -6.2339 H         1 UNK         0.0770 
    107 H107       28.9719    5.6349   -5.4463 H         1 UNK         0.0814 
    108 H108       30.5602    5.5146   -6.1913 H         1 UNK         0.0814 
    109 H109       30.3062    4.8642   -4.5831 H         1 UNK         0.0814 
    110 H110       27.0813    3.3209   -7.1398 H         1 UNK         0.2983 
    111 H111       27.6355    4.3225   -9.8558 H         1 UNK         0.0947 
    112 H112       25.1900    3.9578  -10.1610 H         1 UNK         0.0806 
    113 H113       25.5110    4.9328   -8.7354 H         1 UNK         0.0806 
    114 H114       25.0924    3.2304   -8.5641 H         1 UNK         0.0806 
    115 H115       27.8334    1.2077   -8.2731 H         1 UNK         0.3000 
    116 H116       27.9854   -0.1487  -10.8954 H         1 UNK         0.0850 
    117 H117       26.2054   -1.8200  -10.2404 H         1 UNK         0.0810 
    118 H118       25.5627   -0.2074  -10.4912 H         1 UNK         0.0810 
    119 H119       25.8010   -0.8134   -8.8549 H         1 UNK         0.0810 
    120 H120       28.6028   -0.3034   -7.3987 H         1 UNK         0.3040 
    121 H121       29.3383   -3.0920   -7.3910 H         1 UNK         0.0766 
    122 H122       29.7327   -0.9028   -5.2859 H         1 UNK         0.0812 
    123 H123       29.8345   -2.6219   -5.0006 H         1 UNK         0.0812 
    124 H124       28.2917   -1.9039   -5.4414 H         1 UNK         0.0812 
    125 H125       30.8677   -2.0497   -9.3486 H         1 UNK         0.3205 
    126 H126       32.8643   -1.9805  -10.2830 H         1 UNK         0.0754 
    127 H127       34.8366   -3.0623   -9.2719 H         1 UNK         0.0769 
    128 H128       33.4104   -4.0554   -9.0166 H         1 UNK         0.0769 
    129 H129       34.0685   -3.0933   -7.6941 H         1 UNK         0.0769 
    130 H130       32.9276   -0.5603   -7.0348 H         1 UNK         0.2981 
    131 H131       34.9010    1.4601   -7.5863 H         1 UNK         0.0541 
    132 H132       31.4359    2.9949   -9.0326 H         1 UNK         0.3459 
    133 H133       31.6569    1.2788   -8.7681 H         1 UNK         0.3459 
    134 H134       34.1228    2.4571   -5.4185 H         1 UNK         0.0612 
    135 H135       34.5334    0.7685   -5.3013 H         1 UNK         0.0612 
    136 H136       33.5310    0.4605   -3.1535 H         1 UNK         0.0624 
    137 H137       32.6586    1.9437   -2.8406 H         1 UNK         0.0624 
@<TRIPOS>BOND
     1    1    2 1    
     2    1   72 1    
     3    1   73 1    
     4    1   74 1    
     5    2    3 2    
     6    2    4 am   BACKBONE|DICT|INTERRES
     7    4    5 1    
     8    4   75 1    
     9    5    6 1    
    10    5   35 1    
    11    5   76 1    
    12    6    7 1    
    13    6   77 1    
    14    6   78 1    
    15    7    8 1    
    16    8    9 1    
    17    8   79 1    
    18    8   80 1    
    19    9   10 ar   
    20    9   14 ar   
    21   10   11 ar   
    22   10   81 1    
    23   11   12 ar   
    24   11   71 1    
    25   12   13 ar   
    26   12   82 1    
    27   13   14 ar   
    28   13   15 1    
    29   14   83 1    
    30   15   16 1    
    31   15   84 1    
    32   15   85 1    
    33   16   17 1    
    34   17   18 1    
    35   17   86 1    
    36   17   87 1    
    37   18   19 1    
    38   18   37 1    
    39   18   88 1    
    40   19   20 am   BACKBONE|DICT|INTERRES
    41   19   89 1    
    42   20   21 2    
    43   20   22 1    
    44   22   23 1    
    45   22   24 1    
    46   22   90 1    
    47   23   91 1    
    48   23   92 1    
    49   23   93 1    
    50   24   25 am   BACKBONE|DICT|INTERRES
    51   24   94 1    
    52   25   26 2    
    53   25   27 1    
    54   27   28 1    
    55   27   29 1    
    56   27   95 1    
    57   28   96 1    
    58   28   97 1    
    59   28   98 1    
    60   29   30 am   BACKBONE|DICT|INTERRES
    61   29   99 1    
    62   30   31 2    
    63   30   32 1    
    64   32   33 1    
    65   32   34 1    
    66   32  100 1    
    67   33  101 1    
    68   33  102 1    
    69   33  103 1    
    70   34   35 am   BACKBONE|DICT|INTERRES
    71   34  104 1    
    72   35   36 2    
    73   37   38 2    
    74   37   39 am   BACKBONE|DICT|INTERRES
    75   39   40 1    
    76   39  105 1    
    77   40   41 1    
    78   40   42 1    
    79   40  106 1    
    80   41  107 1    
    81   41  108 1    
    82   41  109 1    
    83   42   43 2    
    84   42   44 am   BACKBONE|DICT|INTERRES
    85   44   45 1    
    86   44  110 1    
    87   45   46 1    
    88   45   47 1    
    89   45  111 1    
    90   46  112 1    
    91   46  113 1    
    92   46  114 1    
    93   47   48 2    
    94   47   49 am   BACKBONE|DICT|INTERRES
    95   49   50 1    
    96   49  115 1    
    97   50   51 1    
    98   50   52 1    
    99   50  116 1    
   100   51  117 1    
   101   51  118 1    
   102   51  119 1    
   103   52   53 2    
   104   52   54 am   BACKBONE|DICT|INTERRES
   105   54   55 1    
   106   54  120 1    
   107   55   56 1    
   108   55   57 1    
   109   55  121 1    
   110   56  122 1    
   111   56  123 1    
   112   56  124 1    
   113   57   58 2    
   114   57   59 am   BACKBONE|DICT|INTERRES
   115   59   60 1    
   116   59  125 1    
   117   60   61 1    
   118   60   62 1    
   119   60  126 1    
   120   61  127 1    
   121   61  128 1    
   122   61  129 1    
   123   62   63 2    
   124   62   64 am   BACKBONE|DICT|INTERRES
   125   64   65 1    
   126   64  130 1    
   127   65   66 1    
   128   65   69 1    
   129   65  131 1    
   130   66   67 am   BACKBONE|DICT|INTERRES
   131   66   68 2    
   132   67  132 1    
   133   67  133 1    
   134   69   70 1    
   135   69  134 1    
   136   69  135 1    
   137   70   71 1    
   138   71  136 1    
   139   71  137 1    
@<TRIPOS>SUBSTRUCTURE
     1 UNK         1 GROUP             0       ****    0 ROOT    
