@<TRIPOS>MOLECULE
3R137
137   139    1
SMALL
USER_CHARGES


@<TRIPOS>ATOM
      1 CA         23.9310   -2.6738    0.2422 C.3       0 UNK        -0.2020 
      2 C          25.3352   -2.2641   -0.1724 C.2       0 UNK         0.4855 
      3 O          25.7003   -1.0973   -0.0242 O.2       0 UNK        -0.5197 
      4 N          26.1297   -3.2059   -0.7000 N.am      1 UNK        -0.4892 
      5 CA         27.5020   -2.9650   -1.1596 C.3       1 UNK         0.0835 
      6 C6         28.2458   -4.2829   -1.4844 C.3       12 UNK        -0.0855 
      7 S7         30.0443   -4.1177   -1.2220 S.3       12 UNK        -0.2931 
      8 C8         30.7138   -5.3449   -2.3880 C.3       12 UNK         0.0378 
      9 C9         30.6727   -4.8422   -3.8231 C.ar      12 UNK        -0.0802 
     10 C10        31.6529   -3.9597   -4.2865 C.ar      12 UNK        -0.0944 
     11 C11        31.6341   -3.4901   -5.6042 C.ar      12 UNK        -0.0787 
     12 C12        30.5970   -3.9027   -6.4541 C.ar      12 UNK        -0.0862 
     13 C13        29.6188   -4.7965   -6.0058 C.ar      12 UNK        -0.0733 
     14 C14        29.6662   -5.2682   -4.6923 C.ar      12 UNK        -0.0832 
     15 C15        28.5103   -5.2635   -6.9381 C.3       12 UNK         0.0240 
     16 S16        26.9039   -4.5338   -6.4933 S.3       12 UNK        -0.2522 
     17 C17        27.2205   -2.7770   -6.8575 C.3       12 UNK        -0.0967 
     18 CA         25.9129   -1.9507   -6.9411 C.3       5 UNK         0.0660 
     19 N          25.1857   -1.9670   -5.6691 N.am      5 UNK        -0.4015 
     20 C          23.8616   -1.8287   -5.5304 C.2       4 UNK         0.4946 
     21 O          23.0910   -1.6530   -6.4752 O.2       4 UNK        -0.5353 
     22 CA         23.3214   -1.8174   -4.0961 C.3       4 UNK         0.0277 
     23 CB         23.4323   -3.2075   -3.4467 C.3       4 UNK        -0.1981 
     24 N          24.0347   -0.8206   -3.2970 N.am      4 UNK        -0.4209 
     25 C          23.7459    0.4897   -3.2977 C.2       3 UNK         0.4942 
     26 O          22.7826    0.9766   -3.8901 O.2       3 UNK        -0.5208 
     27 CA         24.6823    1.4236   -2.5119 C.3       3 UNK         0.0250 
     28 CB         24.1097    1.7147   -1.1152 C.3       3 UNK        -0.1990 
     29 N          26.0405    0.8862   -2.3907 N.am      3 UNK        -0.4232 
     30 C          26.9510    0.9408   -3.3762 C.2       2 UNK         0.4993 
     31 O          26.7566    1.5118   -4.4480 O.2       2 UNK        -0.5286 
     32 CA         28.3040    0.2418   -3.1446 C.3       2 UNK         0.0209 
     33 CB         29.3492    1.2610   -2.6609 C.3       2 UNK        -0.1931 
     34 N          28.2534   -0.8742   -2.1958 N.am      2 UNK        -0.4546 
     35 C          27.5107   -1.9783   -2.3452 C.2       1 UNK         0.5154 
     36 O          26.7960   -2.1972   -3.3275 O.2       1 UNK        -0.5181 
     37 C          26.1729   -0.5008   -7.4023 C.2       5 UNK         0.5014 
     38 O          27.3055   -0.1637   -7.7475 O.2       5 UNK        -0.5248 
     39 N          25.1271    0.3377   -7.4111 N.am      6 UNK        -0.4434 
     40 CA         25.1868    1.7854   -7.6519 C.3       6 UNK         0.0363 
     41 CB         23.7828    2.3822   -7.4676 C.3       6 UNK        -0.1936 
     42 C          25.7781    2.2019   -9.0117 C.2       6 UNK         0.5081 
     43 O          26.3089    3.3069   -9.1226 O.2       6 UNK        -0.5248 
     44 N          25.6964    1.3148  -10.0129 N.am      7 UNK        -0.4718 
     45 CA         26.3124    1.4915  -11.3306 C.3       7 UNK         0.0273 
     46 CB         25.7074    0.4725  -12.3098 C.3       7 UNK        -0.1935 
     47 C          27.8485    1.3690  -11.3093 C.2       7 UNK         0.5018 
     48 O          28.5044    1.9628  -12.1663 O.2       7 UNK        -0.5186 
     49 N          28.3899    0.6045  -10.3508 N.am      8 UNK        -0.4240 
     50 CA         29.8273    0.4076  -10.1480 C.3       8 UNK         0.0235 
     51 CB         30.0984   -1.0811   -9.8809 C.3       8 UNK        -0.2000 
     52 C          30.3538    1.2616   -8.9844 C.2       8 UNK         0.4941 
     53 O          31.5033    1.7035   -9.0353 O.2       8 UNK        -0.5273 
     54 N          29.5107    1.4781   -7.9633 N.am      9 UNK        -0.4262 
     55 CA         29.7672    2.2245   -6.7321 C.3       9 UNK         0.0264 
     56 CB         29.8823    3.7376   -7.0256 C.3       9 UNK        -0.1955 
     57 C          30.9592    1.6226   -5.9688 C.2       9 UNK         0.5031 
     58 O          30.8572    0.4894   -5.5015 O.2       9 UNK        -0.5390 
     59 N          32.0644    2.3701   -5.8693 N.am      10 UNK        -0.4204 
     60 CA         33.3114    1.9378   -5.2358 C.3       10 UNK         0.0237 
     61 CB         34.1448    3.1841   -4.8904 C.3       10 UNK        -0.1985 
     62 C          34.1398    0.9483   -6.0814 C.2       10 UNK         0.4970 
     63 O          35.1226    0.4204   -5.5586 O.2       10 UNK        -0.4914 
     64 N          33.7582    0.7234   -7.3488 N.am      11 UNK        -0.4285 
     65 CA         34.4884   -0.0739   -8.3495 C.3       11 UNK         0.1007 
     66 C          35.8463    0.5742   -8.7665 C.2       11 UNK         0.5703 
     67 N          36.6843   -0.1298   -9.5171 N.am      11 UNK        -0.7361 
     68 O          36.1365    1.7313   -8.4644 O.2       11 UNK        -0.4986 
     69 C69        34.6080   -1.5825   -7.9687 C.3       12 UNK        -0.0947 
     70 S70        32.9975   -2.4294   -7.8556 S.3       12 UNK        -0.2240 
     71 C71        32.7463   -2.5371   -6.0507 C.3       12 UNK         0.0194 
     72 H72        23.8098   -2.5537    1.3184 H         1 UNK         0.0906 
     73 H73        23.7165   -3.7119   -0.0104 H         1 UNK         0.0906 
     74 H74        23.1946   -2.0424   -0.2545 H         1 UNK         0.0906 
     75 H75        25.7777   -4.1441   -0.8270 H         1 UNK         0.3140 
     76 H76        28.0109   -2.4906   -0.3168 H         1 UNK         0.1085 
     77 H77        28.0254   -4.6222   -2.4977 H         1 UNK         0.0836 
     78 H78        27.9076   -5.0822   -0.8228 H         1 UNK         0.0836 
     79 H79        31.7464   -5.5642   -2.1121 H         1 UNK         0.0731 
     80 H80        30.1673   -6.2840   -2.2865 H         1 UNK         0.0731 
     81 H81        32.4358   -3.6365   -3.6136 H         1 UNK         0.1312 
     82 H82        30.5453   -3.5376   -7.4696 H         1 UNK         0.1406 
     83 H83        28.9082   -5.9582   -4.3470 H         1 UNK         0.1631 
     84 H84        28.4302   -6.3502   -6.8866 H         1 UNK         0.0717 
     85 H85        28.7442   -5.0240   -7.9766 H         1 UNK         0.0717 
     86 H86        27.8862   -2.3720   -6.0916 H         1 UNK         0.0934 
     87 H87        27.7665   -2.7240   -7.8013 H         1 UNK         0.0934 
     88 H88        25.2848   -2.4084   -7.7084 H         1 UNK         0.0739 
     89 H89        25.7594   -2.0855   -4.8354 H         1 UNK         0.3093 
     90 H90        22.2620   -1.5539   -4.1384 H         1 UNK         0.0818 
     91 H91        22.9424   -3.9629   -4.0625 H         1 UNK         0.0819 
     92 H92        24.4677   -3.5214   -3.3132 H         1 UNK         0.0819 
     93 H93        22.9454   -3.2264   -2.4728 H         1 UNK         0.0819 
     94 H94        24.8814   -1.1273   -2.8367 H         1 UNK         0.3041 
     95 H95        24.7314    2.3704   -3.0546 H         1 UNK         0.0784 
     96 H96        23.1362    2.2010   -1.1903 H         1 UNK         0.0793 
     97 H97        23.9701    0.8040   -0.5329 H         1 UNK         0.0793 
     98 H98        24.7609    2.3803   -0.5486 H         1 UNK         0.0793 
     99 H99        26.2589    0.3844   -1.5368 H         1 UNK         0.3024 
    100 H100       28.6256   -0.1585   -4.1094 H         1 UNK         0.1171 
    101 H101       29.1107    1.6471   -1.6691 H         1 UNK         0.0786 
    102 H102       30.3447    0.8179   -2.6226 H         1 UNK         0.0786 
    103 H103       29.4051    2.1151   -3.3370 H         1 UNK         0.0786 
    104 H104       28.8018   -0.7703   -1.3541 H         1 UNK         0.2977 
    105 H105       24.2269   -0.0448   -7.1412 H         1 UNK         0.3127 
    106 H106       25.8383    2.2092   -6.8851 H         1 UNK         0.0770 
    107 H107       23.7955    3.4637   -7.6101 H         1 UNK         0.0814 
    108 H108       23.0710    1.9663   -8.1817 H         1 UNK         0.0814 
    109 H109       23.4016    2.1946   -6.4633 H         1 UNK         0.0814 
    110 H110       25.2276    0.4380   -9.8365 H         1 UNK         0.2983 
    111 H111       26.0706    2.4950  -11.6885 H         1 UNK         0.0947 
    112 H112       25.9055   -0.5543  -11.9997 H         1 UNK         0.0806 
    113 H113       26.1260    0.5970  -13.3096 H         1 UNK         0.0806 
    114 H114       24.6276    0.5965  -12.3957 H         1 UNK         0.0806 
    115 H115       27.7784    0.2024   -9.6483 H         1 UNK         0.3000 
    116 H116       30.3765    0.6948  -11.0473 H         1 UNK         0.0850 
    117 H117       31.1704   -1.2695   -9.8266 H         1 UNK         0.0810 
    118 H118       29.7014   -1.7084  -10.6790 H         1 UNK         0.0810 
    119 H119       29.6582   -1.4131   -8.9396 H         1 UNK         0.0810 
    120 H120       28.6318    0.9613   -7.9632 H         1 UNK         0.3040 
    121 H121       28.8923    2.0764   -6.0975 H         1 UNK         0.0766 
    122 H122       30.0260    4.3087   -6.1074 H         1 UNK         0.0812 
    123 H123       28.9676    4.1086   -7.4891 H         1 UNK         0.0812 
    124 H124       30.7056    3.9717   -7.7013 H         1 UNK         0.0812 
    125 H125       32.0680    3.2786   -6.3103 H         1 UNK         0.3205 
    126 H126       33.0611    1.4278   -4.3029 H         1 UNK         0.0754 
    127 H127       35.0612    2.9098   -4.3659 H         1 UNK         0.0769 
    128 H128       33.5940    3.8635   -4.2394 H         1 UNK         0.0769 
    129 H129       34.4357    3.7351   -5.7858 H         1 UNK         0.0769 
    130 H130       32.9436    1.2085   -7.7102 H         1 UNK         0.2981 
    131 H131       33.8752   -0.0126   -9.2492 H         1 UNK         0.0541 
    132 H132       37.5534    0.2923   -9.8046 H         1 UNK         0.3459 
    133 H133       36.4650   -1.0702   -9.8049 H         1 UNK         0.3459 
    134 H134       35.1699   -1.7156   -7.0439 H         1 UNK         0.0612 
    135 H135       35.1669   -2.1280   -8.7294 H         1 UNK         0.0612 
    136 H136       32.5310   -1.5419   -5.6639 H         1 UNK         0.0624 
    137 H137       33.6853   -2.8532   -5.5940 H         1 UNK         0.0624 
@<TRIPOS>BOND
     1    1    2 1    
     2    1   72 1    
     3    1   73 1    
     4    1   74 1    
     5    2    3 2    
     6    2    4 am   BACKBONE|DICT|INTERRES
     7    4    5 1    
     8    4   75 1    
     9    5    6 1    
    10    5   35 1    
    11    5   76 1    
    12    6    7 1    
    13    6   77 1    
    14    6   78 1    
    15    7    8 1    
    16    8    9 1    
    17    8   79 1    
    18    8   80 1    
    19    9   10 ar   
    20    9   14 ar   
    21   10   11 ar   
    22   10   81 1    
    23   11   12 ar   
    24   11   71 1    
    25   12   13 ar   
    26   12   82 1    
    27   13   14 ar   
    28   13   15 1    
    29   14   83 1    
    30   15   16 1    
    31   15   84 1    
    32   15   85 1    
    33   16   17 1    
    34   17   18 1    
    35   17   86 1    
    36   17   87 1    
    37   18   19 1    
    38   18   37 1    
    39   18   88 1    
    40   19   20 am   BACKBONE|DICT|INTERRES
    41   19   89 1    
    42   20   21 2    
    43   20   22 1    
    44   22   23 1    
    45   22   24 1    
    46   22   90 1    
    47   23   91 1    
    48   23   92 1    
    49   23   93 1    
    50   24   25 am   BACKBONE|DICT|INTERRES
    51   24   94 1    
    52   25   26 2    
    53   25   27 1    
    54   27   28 1    
    55   27   29 1    
    56   27   95 1    
    57   28   96 1    
    58   28   97 1    
    59   28   98 1    
    60   29   30 am   BACKBONE|DICT|INTERRES
    61   29   99 1    
    62   30   31 2    
    63   30   32 1    
    64   32   33 1    
    65   32   34 1    
    66   32  100 1    
    67   33  101 1    
    68   33  102 1    
    69   33  103 1    
    70   34   35 am   BACKBONE|DICT|INTERRES
    71   34  104 1    
    72   35   36 2    
    73   37   38 2    
    74   37   39 am   BACKBONE|DICT|INTERRES
    75   39   40 1    
    76   39  105 1    
    77   40   41 1    
    78   40   42 1    
    79   40  106 1    
    80   41  107 1    
    81   41  108 1    
    82   41  109 1    
    83   42   43 2    
    84   42   44 am   BACKBONE|DICT|INTERRES
    85   44   45 1    
    86   44  110 1    
    87   45   46 1    
    88   45   47 1    
    89   45  111 1    
    90   46  112 1    
    91   46  113 1    
    92   46  114 1    
    93   47   48 2    
    94   47   49 am   BACKBONE|DICT|INTERRES
    95   49   50 1    
    96   49  115 1    
    97   50   51 1    
    98   50   52 1    
    99   50  116 1    
   100   51  117 1    
   101   51  118 1    
   102   51  119 1    
   103   52   53 2    
   104   52   54 am   BACKBONE|DICT|INTERRES
   105   54   55 1    
   106   54  120 1    
   107   55   56 1    
   108   55   57 1    
   109   55  121 1    
   110   56  122 1    
   111   56  123 1    
   112   56  124 1    
   113   57   58 2    
   114   57   59 am   BACKBONE|DICT|INTERRES
   115   59   60 1    
   116   59  125 1    
   117   60   61 1    
   118   60   62 1    
   119   60  126 1    
   120   61  127 1    
   121   61  128 1    
   122   61  129 1    
   123   62   63 2    
   124   62   64 am   BACKBONE|DICT|INTERRES
   125   64   65 1    
   126   64  130 1    
   127   65   66 1    
   128   65   69 1    
   129   65  131 1    
   130   66   67 am   BACKBONE|DICT|INTERRES
   131   66   68 2    
   132   67  132 1    
   133   67  133 1    
   134   69   70 1    
   135   69  134 1    
   136   69  135 1    
   137   70   71 1    
   138   71  136 1    
   139   71  137 1    
@<TRIPOS>SUBSTRUCTURE
     1 UNK         1 GROUP             0       ****    0 ROOT    
