@<TRIPOS>MOLECULE
3R137
137   139    1
SMALL
USER_CHARGES


@<TRIPOS>ATOM
      1 CA         25.7869   -6.7107   -2.9292 C.3       0 UNK        -0.2020 
      2 C          25.9870   -5.5986   -1.9113 C.2       0 UNK         0.4855 
      3 O          25.0105   -5.0969   -1.3531 O.2       0 UNK        -0.5197 
      4 N          27.2466   -5.2063   -1.6756 N.am      1 UNK        -0.4892 
      5 CA         27.6719   -4.1278   -0.7740 C.3       1 UNK         0.0835 
      6 C6         29.2181   -4.0310   -0.7564 C.3       12 UNK        -0.0855 
      7 S7         29.8739   -2.8019    0.4258 S.3       12 UNK        -0.2931 
      8 C8         31.3214   -2.1505   -0.4753 C.3       12 UNK         0.0378 
      9 C9         30.9404   -1.4352   -1.7661 C.ar      12 UNK        -0.0802 
     10 C10        31.2683   -1.9917   -3.0064 C.ar      12 UNK        -0.0944 
     11 C11        30.9178   -1.3416   -4.1935 C.ar      12 UNK        -0.0787 
     12 C12        30.2393   -0.1205   -4.1356 C.ar      12 UNK        -0.0862 
     13 C13        29.9078    0.4483   -2.9009 C.ar      12 UNK        -0.0733 
     14 C14        30.2663   -0.2121   -1.7212 C.ar      12 UNK        -0.0832 
     15 C15        29.1595    1.7708   -2.8226 C.3       12 UNK         0.0240 
     16 S16        27.4036    1.4959   -2.4261 S.3       12 UNK        -0.2522 
     17 C17        26.5444    2.0286   -3.9443 C.3       12 UNK        -0.0967 
     18 CA         26.8967    1.2063   -5.2073 C.3       5 UNK         0.0660 
     19 N          26.7335   -0.2418   -5.0205 N.am      5 UNK        -0.4015 
     20 C          27.1322   -1.1800   -5.8949 C.2       4 UNK         0.4946 
     21 O          27.7344   -0.9148   -6.9353 O.2       4 UNK        -0.5353 
     22 CA         26.7446   -2.6420   -5.6145 C.3       4 UNK         0.0277 
     23 CB         27.9689   -3.4724   -5.1968 C.3       4 UNK        -0.1981 
     24 N          25.6876   -2.7630   -4.6064 N.am      4 UNK        -0.4209 
     25 C          24.3860   -2.5393   -4.8489 C.2       3 UNK         0.4942 
     26 O          23.9507   -2.2258   -5.9570 O.2       3 UNK        -0.5208 
     27 CA         23.4031   -2.6552   -3.6693 C.3       3 UNK         0.0250 
     28 CB         22.7051   -4.0242   -3.6765 C.3       3 UNK        -0.1990 
     29 N          24.0427   -2.4326   -2.3700 N.am      3 UNK        -0.4232 
     30 C          24.4019   -1.2213   -1.9173 C.2       2 UNK         0.4993 
     31 O          24.1531   -0.1750   -2.5159 O.2       2 UNK        -0.5286 
     32 CA         25.2039   -1.1593   -0.6023 C.3       2 UNK         0.0209 
     33 CB         24.2626   -0.9293    0.5906 C.3       2 UNK        -0.1931 
     34 N          26.0340   -2.3417   -0.3452 N.am      2 UNK        -0.4546 
     35 C          26.9934   -2.7966   -1.1642 C.2       1 UNK         0.5154 
     36 O          27.2877   -2.2559   -2.2295 O.2       1 UNK        -0.5181 
     37 C          26.1422    1.7559   -6.4379 C.2       5 UNK         0.5014 
     38 O          26.4968    2.8324   -6.9198 O.2       5 UNK        -0.5248 
     39 N          25.1739    0.9952   -6.9744 N.am      6 UNK        -0.4434 
     40 CA         24.5161    1.2417   -8.2618 C.3       6 UNK         0.0363 
     41 CB         23.4111    0.1940   -8.4687 C.3       6 UNK        -0.1936 
     42 C          25.4822    1.2494   -9.4658 C.2       6 UNK         0.5081 
     43 O          25.1582    1.8556  -10.4867 O.2       6 UNK        -0.5248 
     44 N          26.6605    0.6219   -9.3225 N.am      7 UNK        -0.4718 
     45 CA         27.7636    0.6773  -10.2858 C.3       7 UNK         0.0273 
     46 CB         28.6495   -0.5679  -10.1011 C.3       7 UNK        -0.1935 
     47 C          28.6080    1.9648  -10.1775 C.2       7 UNK         0.5018 
     48 O          29.6218    2.0629  -10.8675 O.2       7 UNK        -0.5186 
     49 N          28.2272    2.9090   -9.2996 N.am      8 UNK        -0.4240 
     50 CA         28.8972    4.1904   -9.0295 C.3       8 UNK         0.0235 
     51 CB         28.7857    5.1327  -10.2473 C.3       8 UNK        -0.2000 
     52 C          30.3474    4.0149   -8.5365 C.2       8 UNK         0.4941 
     53 O          31.2262    4.7972   -8.9015 O.2       8 UNK        -0.5273 
     54 N          30.5625    2.9595   -7.7371 N.am      9 UNK        -0.4262 
     55 CA         31.8388    2.4882   -7.1868 C.3       9 UNK         0.0264 
     56 CB         32.4850    3.5476   -6.2693 C.3       9 UNK        -0.1955 
     57 C          32.8289    1.9300   -8.2312 C.2       9 UNK         0.5031 
     58 O          33.9673    1.6300   -7.8663 O.2       9 UNK        -0.5390 
     59 N          32.3951    1.7224   -9.4847 N.am      10 UNK        -0.4204 
     60 CA         33.1418    0.9733  -10.4988 C.3       10 UNK         0.0237 
     61 CB         32.8076    1.5198  -11.8992 C.3       10 UNK        -0.1985 
     62 C          32.8156   -0.5218  -10.3428 C.2       10 UNK         0.4970 
     63 O          32.1215   -1.0983  -11.1813 O.2       10 UNK        -0.4914 
     64 N          33.2745   -1.0983   -9.2256 N.am      11 UNK        -0.4285 
     65 CA         32.9365   -2.4523   -8.7581 C.3       11 UNK         0.1007 
     66 C          33.4395   -3.6201   -9.6573 C.2       11 UNK         0.5703 
     67 N          34.3838   -3.4033  -10.5653 N.am      11 UNK        -0.7361 
     68 O          32.9613   -4.7443   -9.5258 O.2       11 UNK        -0.4986 
     69 C69        33.3762   -2.6787   -7.2862 C.3       12 UNK        -0.0947 
     70 S70        32.8704   -1.3555   -6.1332 S.3       12 UNK        -0.2240 
     71 C71        31.2693   -1.9687   -5.5339 C.3       12 UNK         0.0194 
     72 H72        25.3937   -6.3027   -3.8598 H         1 UNK         0.0906 
     73 H73        26.7188   -7.2298   -3.1522 H         1 UNK         0.0906 
     74 H74        25.0759   -7.4444   -2.5501 H         1 UNK         0.0906 
     75 H75        27.9940   -5.6564   -2.1843 H         1 UNK         0.3140 
     76 H76        27.3431   -4.4003    0.2310 H         1 UNK         0.1085 
     77 H77        29.5831   -3.8147   -1.7609 H         1 UNK         0.0836 
     78 H78        29.6453   -4.9985   -0.4880 H         1 UNK         0.0836 
     79 H79        32.0134   -2.9701   -0.6756 H         1 UNK         0.0731 
     80 H80        31.8551   -1.4543    0.1731 H         1 UNK         0.0731 
     81 H81        31.7941   -2.9357   -3.0503 H         1 UNK         0.1312 
     82 H82        29.9703    0.3793   -5.0542 H         1 UNK         0.1406 
     83 H83        30.0031    0.2180   -0.7643 H         1 UNK         0.1631 
     84 H84        29.2673    2.3387   -3.7474 H         1 UNK         0.0717 
     85 H85        29.6006    2.3894   -2.0397 H         1 UNK         0.0717 
     86 H86        25.4716    1.9754   -3.7475 H         1 UNK         0.0934 
     87 H87        26.7680    3.0860   -4.1016 H         1 UNK         0.0934 
     88 H88        27.9508    1.3718   -5.4273 H         1 UNK         0.0739 
     89 H89        26.2896   -0.5337   -4.1604 H         1 UNK         0.3093 
     90 H90        26.3692   -3.0590   -6.5515 H         1 UNK         0.0818 
     91 H91        28.4812   -3.0434   -4.3359 H         1 UNK         0.0819 
     92 H92        27.6922   -4.4971   -4.9494 H         1 UNK         0.0819 
     93 H93        28.6934   -3.5214   -6.0103 H         1 UNK         0.0819 
     94 H94        26.0004   -2.9088   -3.6524 H         1 UNK         0.3041 
     95 H95        22.6358   -1.8904   -3.8096 H         1 UNK         0.0784 
     96 H96        22.1691   -4.1822   -4.6135 H         1 UNK         0.0793 
     97 H97        23.4145   -4.8436   -3.5672 H         1 UNK         0.0793 
     98 H98        21.9761   -4.1023   -2.8697 H         1 UNK         0.0793 
     99 H99        24.2982   -3.2578   -1.8342 H         1 UNK         0.3024 
    100 H100       25.8760   -0.3027   -0.6780 H         1 UNK         0.1171 
    101 H101       24.8212   -0.7798    1.5148 H         1 UNK         0.0786 
    102 H102       23.6500   -0.0395    0.4377 H         1 UNK         0.0786 
    103 H103       23.5845   -1.7709    0.7380 H         1 UNK         0.0786 
    104 H104       25.8176   -2.8705    0.4876 H         1 UNK         0.2977 
    105 H105       24.9412    0.1245   -6.5159 H         1 UNK         0.3127 
    106 H106       24.0517    2.2287   -8.2115 H         1 UNK         0.0770 
    107 H107       23.8176   -0.8176   -8.5088 H         1 UNK         0.0814 
    108 H108       22.8765    0.3685   -9.4036 H         1 UNK         0.0814 
    109 H109       22.6754    0.2269   -7.6649 H         1 UNK         0.0814 
    110 H110       26.8575    0.1325   -8.4541 H         1 UNK         0.2983 
    111 H111       27.3490    0.6509  -11.2958 H         1 UNK         0.0947 
    112 H112       29.4016   -0.6318  -10.8886 H         1 UNK         0.0806 
    113 H113       28.0632   -1.4858  -10.1417 H         1 UNK         0.0806 
    114 H114       29.1808   -0.5507   -9.1488 H         1 UNK         0.0806 
    115 H115       27.4088    2.7286   -8.7265 H         1 UNK         0.3000 
    116 H116       28.3517    4.6518   -8.2047 H         1 UNK         0.0850 
    117 H117       29.1639    6.1274  -10.0083 H         1 UNK         0.0810 
    118 H118       27.7495    5.2490  -10.5647 H         1 UNK         0.0810 
    119 H119       29.3584    4.7638  -11.0989 H         1 UNK         0.0810 
    120 H120       29.7611    2.3828   -7.5234 H         1 UNK         0.3040 
    121 H121       31.5839    1.6354   -6.5559 H         1 UNK         0.0766 
    122 H122       31.7811    3.9054   -5.5181 H         1 UNK         0.0812 
    123 H123       32.8446    4.4090   -6.8325 H         1 UNK         0.0812 
    124 H124       33.3406    3.1319   -5.7356 H         1 UNK         0.0812 
    125 H125       31.4438    1.9745   -9.7314 H         1 UNK         0.3205 
    126 H126       34.2154    1.1027  -10.3453 H         1 UNK         0.0754 
    127 H127       33.4011    1.0155  -12.6627 H         1 UNK         0.0769 
    128 H128       33.0240    2.5858  -11.9704 H         1 UNK         0.0769 
    129 H129       31.7589    1.3742  -12.1581 H         1 UNK         0.0769 
    130 H130       33.8077   -0.5302   -8.5792 H         1 UNK         0.2981 
    131 H131       31.8467   -2.5145   -8.7793 H         1 UNK         0.0541 
    132 H132       34.7775   -2.4838  -10.6825 H         1 UNK         0.3459 
    133 H133       34.6987   -4.1664  -11.1431 H         1 UNK         0.3459 
    134 H134       33.0014   -3.6347   -6.9161 H         1 UNK         0.0612 
    135 H135       34.4643   -2.7467   -7.2325 H         1 UNK         0.0612 
    136 H136       30.4997   -1.7434   -6.2741 H         1 UNK         0.0624 
    137 H137       31.2968   -3.0546   -5.4344 H         1 UNK         0.0624 
@<TRIPOS>BOND
     1    1    2 1    
     2    1   72 1    
     3    1   73 1    
     4    1   74 1    
     5    2    3 2    
     6    2    4 am   BACKBONE|DICT|INTERRES
     7    4    5 1    
     8    4   75 1    
     9    5    6 1    
    10    5   35 1    
    11    5   76 1    
    12    6    7 1    
    13    6   77 1    
    14    6   78 1    
    15    7    8 1    
    16    8    9 1    
    17    8   79 1    
    18    8   80 1    
    19    9   10 ar   
    20    9   14 ar   
    21   10   11 ar   
    22   10   81 1    
    23   11   12 ar   
    24   11   71 1    
    25   12   13 ar   
    26   12   82 1    
    27   13   14 ar   
    28   13   15 1    
    29   14   83 1    
    30   15   16 1    
    31   15   84 1    
    32   15   85 1    
    33   16   17 1    
    34   17   18 1    
    35   17   86 1    
    36   17   87 1    
    37   18   19 1    
    38   18   37 1    
    39   18   88 1    
    40   19   20 am   BACKBONE|DICT|INTERRES
    41   19   89 1    
    42   20   21 2    
    43   20   22 1    
    44   22   23 1    
    45   22   24 1    
    46   22   90 1    
    47   23   91 1    
    48   23   92 1    
    49   23   93 1    
    50   24   25 am   BACKBONE|DICT|INTERRES
    51   24   94 1    
    52   25   26 2    
    53   25   27 1    
    54   27   28 1    
    55   27   29 1    
    56   27   95 1    
    57   28   96 1    
    58   28   97 1    
    59   28   98 1    
    60   29   30 am   BACKBONE|DICT|INTERRES
    61   29   99 1    
    62   30   31 2    
    63   30   32 1    
    64   32   33 1    
    65   32   34 1    
    66   32  100 1    
    67   33  101 1    
    68   33  102 1    
    69   33  103 1    
    70   34   35 am   BACKBONE|DICT|INTERRES
    71   34  104 1    
    72   35   36 2    
    73   37   38 2    
    74   37   39 am   BACKBONE|DICT|INTERRES
    75   39   40 1    
    76   39  105 1    
    77   40   41 1    
    78   40   42 1    
    79   40  106 1    
    80   41  107 1    
    81   41  108 1    
    82   41  109 1    
    83   42   43 2    
    84   42   44 am   BACKBONE|DICT|INTERRES
    85   44   45 1    
    86   44  110 1    
    87   45   46 1    
    88   45   47 1    
    89   45  111 1    
    90   46  112 1    
    91   46  113 1    
    92   46  114 1    
    93   47   48 2    
    94   47   49 am   BACKBONE|DICT|INTERRES
    95   49   50 1    
    96   49  115 1    
    97   50   51 1    
    98   50   52 1    
    99   50  116 1    
   100   51  117 1    
   101   51  118 1    
   102   51  119 1    
   103   52   53 2    
   104   52   54 am   BACKBONE|DICT|INTERRES
   105   54   55 1    
   106   54  120 1    
   107   55   56 1    
   108   55   57 1    
   109   55  121 1    
   110   56  122 1    
   111   56  123 1    
   112   56  124 1    
   113   57   58 2    
   114   57   59 am   BACKBONE|DICT|INTERRES
   115   59   60 1    
   116   59  125 1    
   117   60   61 1    
   118   60   62 1    
   119   60  126 1    
   120   61  127 1    
   121   61  128 1    
   122   61  129 1    
   123   62   63 2    
   124   62   64 am   BACKBONE|DICT|INTERRES
   125   64   65 1    
   126   64  130 1    
   127   65   66 1    
   128   65   69 1    
   129   65  131 1    
   130   66   67 am   BACKBONE|DICT|INTERRES
   131   66   68 2    
   132   67  132 1    
   133   67  133 1    
   134   69   70 1    
   135   69  134 1    
   136   69  135 1    
   137   70   71 1    
   138   71  136 1    
   139   71  137 1    
@<TRIPOS>SUBSTRUCTURE
     1 UNK         1 GROUP             0       ****    0 ROOT    
