@<TRIPOS>MOLECULE
3R137
137   139    1
SMALL
USER_CHARGES


@<TRIPOS>ATOM
      1 CA         25.6638   -6.2314   -2.5526 C.3       0 UNK        -0.2020 
      2 C          26.1825   -5.5558   -1.2933 C.2       0 UNK         0.4855 
      3 O          25.5451   -5.6508   -0.2443 O.2       0 UNK        -0.5197 
      4 N          27.3424   -4.8905   -1.3825 N.am      1 UNK        -0.4892 
      5 CA         28.0278   -4.2548   -0.2462 C.3       1 UNK         0.0835 
      6 C6         29.5064   -3.9078   -0.5582 C.3       12 UNK        -0.0855 
      7 S7         30.4288   -5.2969   -1.3118 S.3       12 UNK        -0.2931 
      8 C8         31.5284   -4.4536   -2.5002 C.3       12 UNK         0.0378 
      9 C9         30.7681   -3.5964   -3.5043 C.ar      12 UNK        -0.0802 
     10 C10        30.8798   -2.2025   -3.4582 C.ar      12 UNK        -0.0944 
     11 C11        30.1667   -1.4022   -4.3542 C.ar      12 UNK        -0.0787 
     12 C12        29.3467   -2.0070   -5.3084 C.ar      12 UNK        -0.0862 
     13 C13        29.2298   -3.3993   -5.3709 C.ar      12 UNK        -0.0733 
     14 C14        29.9486   -4.1906   -4.4698 C.ar      12 UNK        -0.0832 
     15 C15        28.3266   -4.0421   -6.4152 C.3       12 UNK         0.0240 
     16 S16        26.7608   -4.6587   -5.7157 S.3       12 UNK        -0.2522 
     17 C17        26.0488   -3.1735   -4.9307 C.3       12 UNK        -0.0967 
     18 CA         25.0116   -2.4254   -5.8022 C.3       5 UNK         0.0660 
     19 N          24.1734   -1.5553   -4.9717 N.am      5 UNK        -0.4015 
     20 C          23.0059   -1.0168   -5.3568 C.2       4 UNK         0.4946 
     21 O          22.4543   -1.2798   -6.4262 O.2       4 UNK        -0.5353 
     22 CA         22.3289   -0.0142   -4.3998 C.3       4 UNK         0.0277 
     23 CB         21.2098   -0.7061   -3.6043 C.3       4 UNK        -0.1981 
     24 N          23.2523    0.6319   -3.4626 N.am      4 UNK        -0.4209 
     25 C          24.2349    1.4783   -3.8045 C.2       3 UNK         0.4942 
     26 O          24.4245    1.8774   -4.9528 O.2       3 UNK        -0.5208 
     27 CA         25.2030    1.9203   -2.6896 C.3       3 UNK         0.0250 
     28 CB         24.7971    3.2996   -2.1459 C.3       3 UNK        -0.1990 
     29 N          25.3344    0.9769   -1.5692 N.am      3 UNK        -0.4232 
     30 C          25.7091   -0.3059   -1.6728 C.2       2 UNK         0.4993 
     31 O          25.9244   -0.8725   -2.7485 O.2       2 UNK        -0.5286 
     32 CA         25.8026   -1.1009   -0.3665 C.3       2 UNK         0.0209 
     33 CB         24.4013   -1.4648    0.1585 C.3       2 UNK        -0.1931 
     34 N          26.5592   -2.3217   -0.6222 N.am      2 UNK        -0.4546 
     35 C          27.2872   -3.0022    0.2704 C.2       1 UNK         0.5154 
     36 O          27.3934   -2.6775    1.4544 O.2       1 UNK        -0.5181 
     37 C          25.6750   -1.6204   -6.9415 C.2       5 UNK         0.5014 
     38 O          25.7301   -2.0991   -8.0756 O.2       5 UNK        -0.5248 
     39 N          26.1321   -0.4003   -6.6175 N.am      6 UNK        -0.4434 
     40 CA         26.6606    0.6645   -7.4823 C.3       6 UNK         0.0363 
     41 CB         25.5809    1.1640   -8.4609 C.3       6 UNK        -0.1936 
     42 C          27.9693    0.3597   -8.2335 C.2       6 UNK         0.5081 
     43 O          28.8312    1.2354   -8.2864 O.2       6 UNK        -0.5248 
     44 N          28.0862   -0.8311   -8.8398 N.am      7 UNK        -0.4718 
     45 CA         29.2169   -1.3290   -9.6456 C.3       7 UNK         0.0273 
     46 CB         30.4097   -1.6926   -8.7343 C.3       7 UNK        -0.1935 
     47 C          29.6470   -0.3821  -10.7873 C.2       7 UNK         0.5018 
     48 O          30.8344   -0.3106  -11.1049 O.2       7 UNK        -0.5186 
     49 N          28.6943    0.3875  -11.3379 N.am      8 UNK        -0.4240 
     50 CA         28.9031    1.4882  -12.2929 C.3       8 UNK         0.0235 
     51 CB         29.2940    0.9315  -13.6788 C.3       8 UNK        -0.2000 
     52 C          29.8921    2.5655  -11.7851 C.2       8 UNK         0.4941 
     53 O          30.5944    3.1780  -12.5907 O.2       8 UNK        -0.5273 
     54 N          29.9438    2.7510  -10.4558 N.am      9 UNK        -0.4262 
     55 CA         30.8512    3.6100   -9.6884 C.3       9 UNK         0.0264 
     56 CB         30.7238    5.0915  -10.1033 C.3       9 UNK        -0.1955 
     57 C          32.3169    3.1307   -9.6560 C.2       9 UNK         0.5031 
     58 O          33.1650    3.8689   -9.1502 O.2       9 UNK        -0.5390 
     59 N          32.6120    1.9076  -10.1302 N.am      10 UNK        -0.4204 
     60 CA         33.9630    1.3261  -10.1216 C.3       10 UNK         0.0237 
     61 CB         33.9856    0.0394  -10.9613 C.3       10 UNK        -0.1985 
     62 C          34.5107    1.0525   -8.7085 C.2       10 UNK         0.4970 
     63 O          35.7291    1.0275   -8.5307 O.2       10 UNK        -0.4914 
     64 N          33.6097    0.8758   -7.7345 N.am      11 UNK        -0.4285 
     65 CA         33.9176    0.7941   -6.3007 C.3       11 UNK         0.1007 
     66 C          34.3045    2.1515   -5.6378 C.2       11 UNK         0.5703 
     67 N          34.2010    3.2900   -6.3165 N.am      11 UNK        -0.7361 
     68 O          34.7262    2.1688   -4.4837 O.2       11 UNK        -0.4986 
     69 C69        32.7956    0.0529   -5.5264 C.3       12 UNK        -0.0947 
     70 S70        31.1489    0.8215   -5.7048 S.3       12 UNK        -0.2240 
     71 C71        30.2648    0.1155   -4.2798 C.3       12 UNK         0.0194 
     72 H72        26.4458   -6.3361   -3.3036 H         1 UNK         0.0906 
     73 H73        24.8435   -5.6571   -2.9818 H         1 UNK         0.0906 
     74 H74        25.2937   -7.2293   -2.3188 H         1 UNK         0.0906 
     75 H75        27.8438   -4.8651   -2.2596 H         1 UNK         0.3140 
     76 H76        28.0268   -4.9772    0.5734 H         1 UNK         0.1085 
     77 H77        29.5510   -3.0368   -1.2117 H         1 UNK         0.0836 
     78 H78        30.0258   -3.6175    0.3572 H         1 UNK         0.0836 
     79 H79        32.1089   -5.2044   -3.0382 H         1 UNK         0.0731 
     80 H80        32.2501   -3.8519   -1.9453 H         1 UNK         0.0731 
     81 H81        31.5124   -1.7383   -2.7140 H         1 UNK         0.1312 
     82 H82        28.7977   -1.3873   -6.0021 H         1 UNK         0.1406 
     83 H83        29.8582   -5.2680   -4.5089 H         1 UNK         0.1631 
     84 H84        28.8531   -4.8742   -6.8845 H         1 UNK         0.0717 
     85 H85        28.1009   -3.3398   -7.2174 H         1 UNK         0.0717 
     86 H86        25.5601   -3.5252   -4.0214 H         1 UNK         0.0934 
     87 H87        26.8300   -2.5014   -4.5798 H         1 UNK         0.0934 
     88 H88        24.3546   -3.1671   -6.2621 H         1 UNK         0.0739 
     89 H89        24.5762   -1.2754   -4.0817 H         1 UNK         0.3093 
     90 H90        21.8796    0.7675   -5.0162 H         1 UNK         0.0818 
     91 H91        20.4863   -1.1733   -4.2741 H         1 UNK         0.0819 
     92 H92        21.6009   -1.4878   -2.9516 H         1 UNK         0.0819 
     93 H93        20.6620    0.0060   -2.9867 H         1 UNK         0.0819 
     94 H94        23.1692    0.3717   -2.4910 H         1 UNK         0.3041 
     95 H95        26.1903    2.0123   -3.1474 H         1 UNK         0.0784 
     96 H96        24.7171    4.0299   -2.9527 H         1 UNK         0.0793 
     97 H97        23.8313    3.2664   -1.6399 H         1 UNK         0.0793 
     98 H98        25.5346    3.6821   -1.4399 H         1 UNK         0.0793 
     99 H99        25.1564    1.3538   -0.6488 H         1 UNK         0.3024 
    100 H100       26.3321   -0.4924    0.3704 H         1 UNK         0.1171 
    101 H101       23.8106   -0.5724    0.3688 H         1 UNK         0.0786 
    102 H102       23.8453   -2.0655   -0.5627 H         1 UNK         0.0786 
    103 H103       24.4623   -2.0341    1.0864 H         1 UNK         0.0786 
    104 H104       26.5682   -2.6119   -1.5919 H         1 UNK         0.2977 
    105 H105       26.0300   -0.1260   -5.6499 H         1 UNK         0.3127 
    106 H106       26.8865    1.4909   -6.8061 H         1 UNK         0.0770 
    107 H107       25.2772    0.3893   -9.1656 H         1 UNK         0.0814 
    108 H108       25.9433    2.0118   -9.0439 H         1 UNK         0.0814 
    109 H109       24.6909    1.4967   -7.9261 H         1 UNK         0.0814 
    110 H110       27.2857   -1.4566   -8.7509 H         1 UNK         0.2983 
    111 H111       28.8756   -2.2452  -10.1296 H         1 UNK         0.0947 
    112 H112       30.7927   -0.8202   -8.2057 H         1 UNK         0.0806 
    113 H113       31.2362   -2.1131   -9.3085 H         1 UNK         0.0806 
    114 H114       30.1375   -2.4409   -7.9947 H         1 UNK         0.0806 
    115 H115       27.7487    0.2655  -11.0032 H         1 UNK         0.3000 
    116 H116       27.9407    1.9913  -12.3974 H         1 UNK         0.0850 
    117 H117       29.3206    1.7244  -14.4273 H         1 UNK         0.0810 
    118 H118       28.5769    0.1870  -14.0243 H         1 UNK         0.0810 
    119 H119       30.2801    0.4660  -13.6635 H         1 UNK         0.0810 
    120 H120       29.3589    2.1588   -9.8691 H         1 UNK         0.3040 
    121 H121       30.5044    3.5358   -8.6565 H         1 UNK         0.0766 
    122 H122       31.1375    5.2740  -11.0952 H         1 UNK         0.0812 
    123 H123       31.2601    5.7387   -9.4083 H         1 UNK         0.0812 
    124 H124       29.6832    5.4155  -10.1066 H         1 UNK         0.0812 
    125 H125       31.8728    1.3288  -10.5197 H         1 UNK         0.3205 
    126 H126       34.6320    2.0484  -10.5941 H         1 UNK         0.0754 
    127 H127       35.0017   -0.3458  -11.0563 H         1 UNK         0.0769 
    128 H128       33.6088    0.2140  -11.9694 H         1 UNK         0.0769 
    129 H129       33.3820   -0.7480  -10.5084 H         1 UNK         0.0769 
    130 H130       32.6288    0.9226   -7.9658 H         1 UNK         0.2981 
    131 H131       34.8118    0.1750   -6.2073 H         1 UNK         0.0541 
    132 H132       33.8668    3.3082   -7.2726 H         1 UNK         0.3459 
    133 H133       34.4645    4.1513   -5.8656 H         1 UNK         0.3459 
    134 H134       33.0455   -0.0226   -4.4665 H         1 UNK         0.0612 
    135 H135       32.7221   -0.9745   -5.8865 H         1 UNK         0.0612 
    136 H136       29.2593    0.5375   -4.2464 H         1 UNK         0.0624 
    137 H137       30.7606    0.4304   -3.3604 H         1 UNK         0.0624 
@<TRIPOS>BOND
     1    1    2 1    
     2    1   72 1    
     3    1   73 1    
     4    1   74 1    
     5    2    3 2    
     6    2    4 am   BACKBONE|DICT|INTERRES
     7    4    5 1    
     8    4   75 1    
     9    5    6 1    
    10    5   35 1    
    11    5   76 1    
    12    6    7 1    
    13    6   77 1    
    14    6   78 1    
    15    7    8 1    
    16    8    9 1    
    17    8   79 1    
    18    8   80 1    
    19    9   10 ar   
    20    9   14 ar   
    21   10   11 ar   
    22   10   81 1    
    23   11   12 ar   
    24   11   71 1    
    25   12   13 ar   
    26   12   82 1    
    27   13   14 ar   
    28   13   15 1    
    29   14   83 1    
    30   15   16 1    
    31   15   84 1    
    32   15   85 1    
    33   16   17 1    
    34   17   18 1    
    35   17   86 1    
    36   17   87 1    
    37   18   19 1    
    38   18   37 1    
    39   18   88 1    
    40   19   20 am   BACKBONE|DICT|INTERRES
    41   19   89 1    
    42   20   21 2    
    43   20   22 1    
    44   22   23 1    
    45   22   24 1    
    46   22   90 1    
    47   23   91 1    
    48   23   92 1    
    49   23   93 1    
    50   24   25 am   BACKBONE|DICT|INTERRES
    51   24   94 1    
    52   25   26 2    
    53   25   27 1    
    54   27   28 1    
    55   27   29 1    
    56   27   95 1    
    57   28   96 1    
    58   28   97 1    
    59   28   98 1    
    60   29   30 am   BACKBONE|DICT|INTERRES
    61   29   99 1    
    62   30   31 2    
    63   30   32 1    
    64   32   33 1    
    65   32   34 1    
    66   32  100 1    
    67   33  101 1    
    68   33  102 1    
    69   33  103 1    
    70   34   35 am   BACKBONE|DICT|INTERRES
    71   34  104 1    
    72   35   36 2    
    73   37   38 2    
    74   37   39 am   BACKBONE|DICT|INTERRES
    75   39   40 1    
    76   39  105 1    
    77   40   41 1    
    78   40   42 1    
    79   40  106 1    
    80   41  107 1    
    81   41  108 1    
    82   41  109 1    
    83   42   43 2    
    84   42   44 am   BACKBONE|DICT|INTERRES
    85   44   45 1    
    86   44  110 1    
    87   45   46 1    
    88   45   47 1    
    89   45  111 1    
    90   46  112 1    
    91   46  113 1    
    92   46  114 1    
    93   47   48 2    
    94   47   49 am   BACKBONE|DICT|INTERRES
    95   49   50 1    
    96   49  115 1    
    97   50   51 1    
    98   50   52 1    
    99   50  116 1    
   100   51  117 1    
   101   51  118 1    
   102   51  119 1    
   103   52   53 2    
   104   52   54 am   BACKBONE|DICT|INTERRES
   105   54   55 1    
   106   54  120 1    
   107   55   56 1    
   108   55   57 1    
   109   55  121 1    
   110   56  122 1    
   111   56  123 1    
   112   56  124 1    
   113   57   58 2    
   114   57   59 am   BACKBONE|DICT|INTERRES
   115   59   60 1    
   116   59  125 1    
   117   60   61 1    
   118   60   62 1    
   119   60  126 1    
   120   61  127 1    
   121   61  128 1    
   122   61  129 1    
   123   62   63 2    
   124   62   64 am   BACKBONE|DICT|INTERRES
   125   64   65 1    
   126   64  130 1    
   127   65   66 1    
   128   65   69 1    
   129   65  131 1    
   130   66   67 am   BACKBONE|DICT|INTERRES
   131   66   68 2    
   132   67  132 1    
   133   67  133 1    
   134   69   70 1    
   135   69  134 1    
   136   69  135 1    
   137   70   71 1    
   138   71  136 1    
   139   71  137 1    
@<TRIPOS>SUBSTRUCTURE
     1 UNK         1 GROUP             0       ****    0 ROOT    
