@<TRIPOS>MOLECULE
3R137
137   139    1
SMALL
USER_CHARGES


@<TRIPOS>ATOM
      1 CA         27.7991    0.8161   -3.4224 C.3       0 UNK        -0.2020 
      2 C          27.7065   -0.0007   -2.1401 C.2       0 UNK         0.4855 
      3 O          27.4218    0.5540   -1.0792 O.2       0 UNK        -0.5197 
      4 N          27.9483   -1.3140   -2.2390 N.am      1 UNK        -0.4892 
      5 CA         27.9473   -2.2990   -1.1489 C.3       1 UNK         0.0835 
      6 C6         29.1768   -2.1569   -0.2016 C.3       12 UNK        -0.0855 
      7 S7         30.0609   -3.7475   -0.0350 S.3       12 UNK        -0.2931 
      8 C8         31.4010   -3.5852   -1.2688 C.3       12 UNK         0.0378 
      9 C9         30.9033   -3.1359   -2.6395 C.ar      12 UNK        -0.0802 
     10 C10        31.3197   -1.9093   -3.1659 C.ar      12 UNK        -0.0944 
     11 C11        30.8526   -1.4716   -4.4084 C.ar      12 UNK        -0.0787 
     12 C12        29.9423   -2.2596   -5.1180 C.ar      12 UNK        -0.0862 
     13 C13        29.5029   -3.4802   -4.5951 C.ar      12 UNK        -0.0733 
     14 C14        30.0129   -3.9286   -3.3718 C.ar      12 UNK        -0.0832 
     15 C15        28.4629   -4.3086   -5.3370 C.3       12 UNK         0.0240 
     16 S16        26.7987   -4.0942   -4.6196 S.3       12 UNK        -0.2522 
     17 C17        26.3553   -2.4104   -5.1662 C.3       12 UNK        -0.0967 
     18 CA         25.1950   -2.3841   -6.1949 C.3       5 UNK         0.0660 
     19 N          23.9649   -2.9413   -5.6299 N.am      5 UNK        -0.4015 
     20 C          23.0721   -3.6831   -6.2977 C.2       4 UNK         0.4946 
     21 O          23.2033   -4.0069   -7.4796 O.2       4 UNK        -0.5353 
     22 CA         21.8290   -4.1781   -5.5295 C.3       4 UNK         0.0277 
     23 CB         21.9756   -5.6703   -5.1861 C.3       4 UNK        -0.1981 
     24 N          21.5664   -3.4341   -4.2953 N.am      4 UNK        -0.4209 
     25 C          21.0160   -2.2132   -4.2381 C.2       3 UNK         0.4942 
     26 O          20.5644   -1.6227   -5.2198 O.2       3 UNK        -0.5208 
     27 CA         20.9639   -1.5241   -2.8573 C.3       3 UNK         0.0250 
     28 CB         19.5499   -1.6270   -2.2615 C.3       3 UNK        -0.1990 
     29 N          21.9375   -2.0187   -1.8711 N.am      3 UNK        -0.4232 
     30 C          23.2682   -2.0081   -2.0291 C.2       2 UNK         0.4993 
     31 O          23.8264   -1.6140   -3.0563 O.2       2 UNK        -0.5286 
     32 CA         24.1147   -2.5755   -0.8818 C.3       2 UNK         0.0209 
     33 CB         23.8026   -4.0654   -0.6325 C.3       2 UNK        -0.1931 
     34 N          25.5166   -2.4216   -1.2540 N.am      2 UNK        -0.4546 
     35 C          26.5789   -2.4456   -0.4446 C.2       1 UNK         0.5154 
     36 O          26.5007   -2.5944    0.7767 O.2       1 UNK        -0.5181 
     37 C          24.9453   -0.9372   -6.6643 C.2       5 UNK         0.5014 
     38 O          23.9148   -0.3385   -6.3447 O.2       5 UNK        -0.5248 
     39 N          25.9324   -0.3825   -7.3741 N.am      6 UNK        -0.4434 
     40 CA         26.0478    1.0365   -7.6888 C.3       6 UNK         0.0363 
     41 CB         25.8179    1.2500   -9.1941 C.3       6 UNK        -0.1936 
     42 C          27.4587    1.4796   -7.2919 C.2       6 UNK         0.5081 
     43 O          28.3962    0.6809   -7.3793 O.2       6 UNK        -0.5248 
     44 N          27.6024    2.7506   -6.9022 N.am      7 UNK        -0.4718 
     45 CA         28.8823    3.3855   -6.5733 C.3       7 UNK         0.0273 
     46 CB         28.6304    4.5351   -5.5799 C.3       7 UNK        -0.1935 
     47 C          29.6126    3.8457   -7.8509 C.2       7 UNK         0.5018 
     48 O          29.8746    5.0377   -8.0251 O.2       7 UNK        -0.5186 
     49 N          29.8850    2.8859   -8.7423 N.am      8 UNK        -0.4240 
     50 CA         30.5943    3.0742  -10.0078 C.3       8 UNK         0.0235 
     51 CB         30.3453    1.8384  -10.8896 C.3       8 UNK        -0.2000 
     52 C          32.1011    3.3022   -9.7971 C.2       8 UNK         0.4941 
     53 O          32.6224    3.0349   -8.7102 O.2       8 UNK        -0.5273 
     54 N          32.7846    3.7554  -10.8582 N.am      9 UNK        -0.4262 
     55 CA         34.2389    3.9404  -10.9115 C.3       9 UNK         0.0264 
     56 CB         34.6348    4.4977  -12.2890 C.3       9 UNK        -0.1955 
     57 C          34.9756    2.6228  -10.6159 C.2       9 UNK         0.5031 
     58 O          34.8171    1.6588  -11.3696 O.2       9 UNK        -0.5390 
     59 N          35.6895    2.5890   -9.4805 N.am      10 UNK        -0.4204 
     60 CA         36.3381    1.4141   -8.8773 C.3       10 UNK         0.0237 
     61 CB         37.5535    0.9756   -9.7225 C.3       10 UNK        -0.1985 
     62 C          35.3657    0.2467   -8.5881 C.2       10 UNK         0.4970 
     63 O          35.7964   -0.9076   -8.5609 O.2       10 UNK        -0.4914 
     64 N          34.0763    0.5661   -8.4002 N.am      11 UNK        -0.4285 
     65 CA         32.9485   -0.3707   -8.2748 C.3       11 UNK         0.1007 
     66 C          32.6718   -1.2134   -9.5585 C.2       11 UNK         0.5703 
     67 N          33.1536   -0.8145  -10.7317 N.am      11 UNK        -0.7361 
     68 O          31.9779   -2.2258   -9.5041 O.2       11 UNK        -0.4986 
     69 C69        32.9974   -1.2210   -6.9737 C.3       12 UNK        -0.0947 
     70 S70        33.0685   -0.1847   -5.4720 S.3       12 UNK        -0.2240 
     71 C71        31.3191   -0.1365   -4.9707 C.3       12 UNK         0.0194 
     72 H72        28.4865    1.6509   -3.2876 H         1 UNK         0.0906 
     73 H73        28.1555    0.2224   -4.2640 H         1 UNK         0.0906 
     74 H74        26.8207    1.2195   -3.6824 H         1 UNK         0.0906 
     75 H75        28.2236   -1.6945   -3.1343 H         1 UNK         0.3140 
     76 H76        28.0347   -3.2497   -1.6743 H         1 UNK         0.1085 
     77 H77        28.8992   -1.7945    0.7894 H         1 UNK         0.0836 
     78 H78        29.8793   -1.4126   -0.5798 H         1 UNK         0.0836 
     79 H79        31.9071   -4.5461   -1.3702 H         1 UNK         0.0731 
     80 H80        32.1462   -2.8881   -0.8822 H         1 UNK         0.0731 
     81 H81        32.0108   -1.2896   -2.6109 H         1 UNK         0.1312 
     82 H82        29.5710   -1.9152   -6.0741 H         1 UNK         0.1406 
     83 H83        29.6795   -4.8739   -2.9646 H         1 UNK         0.1631 
     84 H84        28.7350   -5.3638   -5.2847 H         1 UNK         0.0717 
     85 H85        28.4418   -4.0522   -6.3974 H         1 UNK         0.0717 
     86 H86        26.0908   -1.8246   -4.2865 H         1 UNK         0.0934 
     87 H87        27.2421   -1.9318   -5.5794 H         1 UNK         0.0934 
     88 H88        25.4951   -2.9687   -7.0674 H         1 UNK         0.0739 
     89 H89        23.7464   -2.6232   -4.6905 H         1 UNK         0.3093 
     90 H90        20.9691   -4.0638   -6.1933 H         1 UNK         0.0818 
     91 H91        22.8232   -5.8512   -4.5237 H         1 UNK         0.0819 
     92 H92        21.0792   -6.0569   -4.7008 H         1 UNK         0.0819 
     93 H93        22.1349   -6.2642   -6.0873 H         1 UNK         0.0819 
     94 H94        21.8894   -3.8508   -3.4347 H         1 UNK         0.3041 
     95 H95        21.1862   -0.4682   -3.0260 H         1 UNK         0.0784 
     96 H96        18.8033   -1.2385   -2.9559 H         1 UNK         0.0793 
     97 H97        19.2803   -2.6601   -2.0384 H         1 UNK         0.0793 
     98 H98        19.4624   -1.0491   -1.3412 H         1 UNK         0.0793 
     99 H99        21.5555   -2.3688   -1.0038 H         1 UNK         0.3024 
    100 H100       23.9143   -1.9906    0.0186 H         1 UNK         0.1171 
    101 H101       23.9763   -4.6671   -1.5258 H         1 UNK         0.0786 
    102 H102       22.7649   -4.2134   -0.3324 H         1 UNK         0.0786 
    103 H103       24.4225   -4.4731    0.1662 H         1 UNK         0.0786 
    104 H104       25.6493   -2.2138   -2.2361 H         1 UNK         0.2977 
    105 H105       26.7773   -0.9094   -7.5560 H         1 UNK         0.3127 
    106 H106       25.3219    1.6225   -7.1205 H         1 UNK         0.0770 
    107 H107       26.5451    0.7032   -9.7960 H         1 UNK         0.0814 
    108 H108       25.9027    2.3049   -9.4578 H         1 UNK         0.0814 
    109 H109       24.8224    0.9202   -9.4913 H         1 UNK         0.0814 
    110 H110       26.7914    3.3534   -6.8986 H         1 UNK         0.2983 
    111 H111       29.5294    2.6576   -6.0779 H         1 UNK         0.0947 
    112 H112       27.9894    5.3072   -6.0072 H         1 UNK         0.0806 
    113 H113       29.5676    5.0123   -5.2901 H         1 UNK         0.0806 
    114 H114       28.1577    4.1731   -4.6667 H         1 UNK         0.0806 
    115 H115       29.6223    1.9381   -8.4963 H         1 UNK         0.3000 
    116 H116       30.1829    3.9547  -10.5063 H         1 UNK         0.0850 
    117 H117       30.8418    1.9295  -11.8565 H         1 UNK         0.0810 
    118 H118       29.2818    1.7023  -11.0874 H         1 UNK         0.0810 
    119 H119       30.7146    0.9268  -10.4199 H         1 UNK         0.0810 
    120 H120       32.2838    3.9198  -11.7195 H         1 UNK         0.3040 
    121 H121       34.5075    4.6804  -10.1547 H         1 UNK         0.0766 
    122 H122       34.1585    5.4592  -12.4818 H         1 UNK         0.0812 
    123 H123       34.3581    3.8173  -13.0956 H         1 UNK         0.0812 
    124 H124       35.7128    4.6531  -12.3507 H         1 UNK         0.0812 
    125 H125       35.7147    3.4290   -8.9177 H         1 UNK         0.3205 
    126 H126       36.7114    1.7375   -7.9045 H         1 UNK         0.0754 
    127 H127       38.1260    0.1980   -9.2152 H         1 UNK         0.0769 
    128 H128       38.2330    1.8087   -9.9025 H         1 UNK         0.0769 
    129 H129       37.2490    0.5761  -10.6905 H         1 UNK         0.0769 
    130 H130       33.8005    1.5430   -8.4490 H         1 UNK         0.2981 
    131 H131       32.0677    0.2671   -8.1932 H         1 UNK         0.0541 
    132 H132       33.7271    0.0184  -10.8118 H         1 UNK         0.3459 
    133 H133       32.9571   -1.3645  -11.5522 H         1 UNK         0.3459 
    134 H134       32.1286   -1.8763   -6.9076 H         1 UNK         0.0612 
    135 H135       33.8660   -1.8804   -6.9772 H         1 UNK         0.0612 
    136 H136       31.1918    0.6353   -4.2104 H         1 UNK         0.0624 
    137 H137       30.7079    0.1684   -5.8219 H         1 UNK         0.0624 
@<TRIPOS>BOND
     1    1    2 1    
     2    1   72 1    
     3    1   73 1    
     4    1   74 1    
     5    2    3 2    
     6    2    4 am   BACKBONE|DICT|INTERRES
     7    4    5 1    
     8    4   75 1    
     9    5    6 1    
    10    5   35 1    
    11    5   76 1    
    12    6    7 1    
    13    6   77 1    
    14    6   78 1    
    15    7    8 1    
    16    8    9 1    
    17    8   79 1    
    18    8   80 1    
    19    9   10 ar   
    20    9   14 ar   
    21   10   11 ar   
    22   10   81 1    
    23   11   12 ar   
    24   11   71 1    
    25   12   13 ar   
    26   12   82 1    
    27   13   14 ar   
    28   13   15 1    
    29   14   83 1    
    30   15   16 1    
    31   15   84 1    
    32   15   85 1    
    33   16   17 1    
    34   17   18 1    
    35   17   86 1    
    36   17   87 1    
    37   18   19 1    
    38   18   37 1    
    39   18   88 1    
    40   19   20 am   BACKBONE|DICT|INTERRES
    41   19   89 1    
    42   20   21 2    
    43   20   22 1    
    44   22   23 1    
    45   22   24 1    
    46   22   90 1    
    47   23   91 1    
    48   23   92 1    
    49   23   93 1    
    50   24   25 am   BACKBONE|DICT|INTERRES
    51   24   94 1    
    52   25   26 2    
    53   25   27 1    
    54   27   28 1    
    55   27   29 1    
    56   27   95 1    
    57   28   96 1    
    58   28   97 1    
    59   28   98 1    
    60   29   30 am   BACKBONE|DICT|INTERRES
    61   29   99 1    
    62   30   31 2    
    63   30   32 1    
    64   32   33 1    
    65   32   34 1    
    66   32  100 1    
    67   33  101 1    
    68   33  102 1    
    69   33  103 1    
    70   34   35 am   BACKBONE|DICT|INTERRES
    71   34  104 1    
    72   35   36 2    
    73   37   38 2    
    74   37   39 am   BACKBONE|DICT|INTERRES
    75   39   40 1    
    76   39  105 1    
    77   40   41 1    
    78   40   42 1    
    79   40  106 1    
    80   41  107 1    
    81   41  108 1    
    82   41  109 1    
    83   42   43 2    
    84   42   44 am   BACKBONE|DICT|INTERRES
    85   44   45 1    
    86   44  110 1    
    87   45   46 1    
    88   45   47 1    
    89   45  111 1    
    90   46  112 1    
    91   46  113 1    
    92   46  114 1    
    93   47   48 2    
    94   47   49 am   BACKBONE|DICT|INTERRES
    95   49   50 1    
    96   49  115 1    
    97   50   51 1    
    98   50   52 1    
    99   50  116 1    
   100   51  117 1    
   101   51  118 1    
   102   51  119 1    
   103   52   53 2    
   104   52   54 am   BACKBONE|DICT|INTERRES
   105   54   55 1    
   106   54  120 1    
   107   55   56 1    
   108   55   57 1    
   109   55  121 1    
   110   56  122 1    
   111   56  123 1    
   112   56  124 1    
   113   57   58 2    
   114   57   59 am   BACKBONE|DICT|INTERRES
   115   59   60 1    
   116   59  125 1    
   117   60   61 1    
   118   60   62 1    
   119   60  126 1    
   120   61  127 1    
   121   61  128 1    
   122   61  129 1    
   123   62   63 2    
   124   62   64 am   BACKBONE|DICT|INTERRES
   125   64   65 1    
   126   64  130 1    
   127   65   66 1    
   128   65   69 1    
   129   65  131 1    
   130   66   67 am   BACKBONE|DICT|INTERRES
   131   66   68 2    
   132   67  132 1    
   133   67  133 1    
   134   69   70 1    
   135   69  134 1    
   136   69  135 1    
   137   70   71 1    
   138   71  136 1    
   139   71  137 1    
@<TRIPOS>SUBSTRUCTURE
     1 UNK         1 GROUP             0       ****    0 ROOT    
