@<TRIPOS>MOLECULE
3R137
137   139    1
SMALL
USER_CHARGES


@<TRIPOS>ATOM
      1 CA         28.8196   -4.5046   -3.9772 C.3       0 UNK        -0.2020 
      2 C          28.0168   -4.4500   -2.6896 C.2       0 UNK         0.4855 
      3 O          27.0331   -5.1774   -2.5440 O.2       0 UNK        -0.5197 
      4 N          28.4022   -3.5650   -1.7613 N.am      1 UNK        -0.4892 
      5 CA         27.6977   -3.3010   -0.4978 C.3       1 UNK         0.0835 
      6 C6         28.6549   -2.7914    0.6126 C.3       12 UNK        -0.0855 
      7 S7         30.0668   -3.9247    0.8843 S.3       12 UNK        -0.2931 
      8 C8         31.5179   -2.8815    0.5130 C.3       12 UNK         0.0378 
      9 C9         31.4944   -2.3170   -0.9018 C.ar      12 UNK        -0.0802 
     10 C10        31.8386   -3.1171   -1.9975 C.ar      12 UNK        -0.0944 
     11 C11        31.8002   -2.5945   -3.2955 C.ar      12 UNK        -0.0787 
     12 C12        31.4031   -1.2680   -3.4908 C.ar      12 UNK        -0.0862 
     13 C13        31.0798   -0.4552   -2.4021 C.ar      12 UNK        -0.0733 
     14 C14        31.1365   -0.9820   -1.1107 C.ar      12 UNK        -0.0832 
     15 C15        30.6713    0.9936   -2.6194 C.3       12 UNK         0.0240 
     16 S16        28.9240    1.2924   -2.1995 S.3       12 UNK        -0.2522 
     17 C17        28.0495    0.1437   -3.3150 C.3       12 UNK        -0.0967 
     18 CA         27.9693    0.6381   -4.7801 C.3       5 UNK         0.0660 
     19 N          27.6132   -0.4533   -5.6872 N.am      5 UNK        -0.4015 
     20 C          27.7569   -0.4153   -7.0191 C.2       4 UNK         0.4946 
     21 O          28.2894    0.5161   -7.6228 O.2       4 UNK        -0.5353 
     22 CA         27.1974   -1.6013   -7.8256 C.3       4 UNK         0.0277 
     23 CB         28.2979   -2.6528   -8.0453 C.3       4 UNK        -0.1981 
     24 N          26.0297   -2.2442   -7.2143 N.am      4 UNK        -0.4209 
     25 C          24.8765   -1.6393   -6.8916 C.2       3 UNK         0.4942 
     26 O          24.6370   -0.4553   -7.1252 O.2       3 UNK        -0.5208 
     27 CA         23.8394   -2.4721   -6.1132 C.3       3 UNK         0.0250 
     28 CB         23.9966   -3.9958   -6.3203 C.3       3 UNK        -0.1990 
     29 N          23.8225   -2.1643   -4.6734 N.am      3 UNK        -0.4232 
     30 C          24.8730   -2.1548   -3.8373 C.2       2 UNK         0.4993 
     31 O          26.0412   -2.2803   -4.2149 O.2       2 UNK        -0.5286 
     32 CA         24.5982   -1.9897   -2.3306 C.3       2 UNK         0.0209 
     33 CB         23.1909   -2.4492   -1.9011 C.3       2 UNK        -0.1931 
     34 N          25.6008   -2.7908   -1.6332 N.am      2 UNK        -0.4546 
     35 C          26.5074   -2.3477   -0.7574 C.2       1 UNK         0.5154 
     36 O          26.4599   -1.2370   -0.2257 O.2       1 UNK        -0.5181 
     37 C          27.0057    1.8322   -4.9357 C.2       5 UNK         0.5014 
     38 O          27.4613    2.9735   -5.0109 O.2       5 UNK        -0.5248 
     39 N          25.6972    1.5474   -5.0180 N.am      6 UNK        -0.4434 
     40 CA         24.6404    2.5463   -5.2013 C.3       6 UNK         0.0363 
     41 CB         23.2732    1.9112   -4.8990 C.3       6 UNK        -0.1936 
     42 C          24.6614    3.1660   -6.6084 C.2       6 UNK         0.5081 
     43 O          24.4382    4.3684   -6.7481 O.2       6 UNK        -0.5248 
     44 N          24.9628    2.3400   -7.6189 N.am      7 UNK        -0.4718 
     45 CA         25.1521    2.7479   -9.0131 C.3       7 UNK         0.0273 
     46 CB         25.0904    1.4960   -9.9037 C.3       7 UNK        -0.1935 
     47 C          26.4678    3.5100   -9.2641 C.2       7 UNK         0.5018 
     48 O          26.5948    4.1357  -10.3173 O.2       7 UNK        -0.5186 
     49 N          27.4178    3.4246   -8.3185 N.am      8 UNK        -0.4240 
     50 CA         28.7898    3.9449   -8.3748 C.3       8 UNK         0.0235 
     51 CB         28.7990    5.4883   -8.3903 C.3       8 UNK        -0.2000 
     52 C          29.5969    3.3176   -9.5290 C.2       8 UNK         0.4941 
     53 O          30.2952    4.0219  -10.2602 O.2       8 UNK        -0.5273 
     54 N          29.4743    1.9916   -9.6700 N.am      9 UNK        -0.4262 
     55 CA         30.0607    1.1904  -10.7467 C.3       9 UNK         0.0264 
     56 CB         29.0799    0.0578  -11.0993 C.3       9 UNK        -0.1955 
     57 C          31.4548    0.6320  -10.4031 C.2       9 UNK         0.5031 
     58 O          31.9739   -0.1794  -11.1714 O.2       9 UNK        -0.5390 
     59 N          32.0277    1.0393   -9.2581 N.am      10 UNK        -0.4204 
     60 CA         33.3551    0.6644   -8.7435 C.3       10 UNK         0.0237 
     61 CB         34.4638    1.3248   -9.5909 C.3       10 UNK        -0.1985 
     62 C          33.5429   -0.8602   -8.5966 C.2       10 UNK         0.4970 
     63 O          34.6010   -1.3910   -8.9392 O.2       10 UNK        -0.4914 
     64 N          32.4877   -1.5268   -8.1107 N.am      11 UNK        -0.4285 
     65 CA         32.3608   -2.9876   -7.9660 C.3       11 UNK         0.1007 
     66 C          32.2318   -3.7663   -9.3115 C.2       11 UNK         0.5703 
     67 N          32.0696   -3.1133  -10.4573 N.am      11 UNK        -0.7361 
     68 O          32.2394   -4.9950   -9.3150 O.2       11 UNK        -0.4986 
     69 C69        33.4130   -3.6287   -7.0081 C.3       12 UNK        -0.0947 
     70 S70        33.5798   -2.7670   -5.4084 S.3       12 UNK        -0.2240 
     71 C71        32.1655   -3.4564   -4.4962 C.3       12 UNK         0.0194 
     72 H72        28.2329   -4.9610   -4.7742 H         1 UNK         0.0906 
     73 H73        29.0918   -3.5003   -4.2998 H         1 UNK         0.0906 
     74 H74        29.7245   -5.0942   -3.8354 H         1 UNK         0.0906 
     75 H75        29.2291   -3.0040   -1.9169 H         1 UNK         0.3140 
     76 H76        27.2695   -4.2398   -0.1384 H         1 UNK         0.1085 
     77 H77        28.1142   -2.7026    1.5566 H         1 UNK         0.0836 
     78 H78        29.0143   -1.7880    0.3859 H         1 UNK         0.0836 
     79 H79        32.4222   -3.4764    0.6489 H         1 UNK         0.0731 
     80 H80        31.5735   -2.0766    1.2478 H         1 UNK         0.0731 
     81 H81        32.1285   -4.1467   -1.8367 H         1 UNK         0.1312 
     82 H82        31.3623   -0.8661   -4.4941 H         1 UNK         0.1406 
     83 H83        30.8827   -0.3507   -0.2695 H         1 UNK         0.1631 
     84 H84        31.2956    1.6371   -1.9980 H         1 UNK         0.0717 
     85 H85        30.8533    1.3010   -3.6500 H         1 UNK         0.0717 
     86 H86        28.5407   -0.8286   -3.2691 H         1 UNK         0.0934 
     87 H87        27.0521   -0.0260   -2.9068 H         1 UNK         0.0934 
     88 H88        28.9617    0.9817   -5.0786 H         1 UNK         0.0739 
     89 H89        27.1370   -1.2502   -5.2666 H         1 UNK         0.3093 
     90 H90        26.8870   -1.2169   -8.7986 H         1 UNK         0.0818 
     91 H91        29.1837   -2.2081   -8.4999 H         1 UNK         0.0819 
     92 H92        27.9607   -3.4466   -8.7120 H         1 UNK         0.0819 
     93 H93        28.6110   -3.1125   -7.1069 H         1 UNK         0.0819 
     94 H94        26.1392   -3.2094   -6.9397 H         1 UNK         0.3041 
     95 H95        22.8639   -2.1839   -6.5082 H         1 UNK         0.0784 
     96 H96        24.0196   -4.2520   -7.3806 H         1 UNK         0.0793 
     97 H97        24.9053   -4.3868   -5.8606 H         1 UNK         0.0793 
     98 H98        23.1558   -4.5344   -5.8829 H         1 UNK         0.0793 
     99 H99        22.9054   -2.0149   -4.2766 H         1 UNK         0.3024 
    100 H100       24.7199   -0.9312   -2.0901 H         1 UNK         0.1171 
    101 H101       23.0819   -2.4077   -0.8171 H         1 UNK         0.0786 
    102 H102       22.4147   -1.8075   -2.3194 H         1 UNK         0.0786 
    103 H103       22.9851   -3.4742   -2.2131 H         1 UNK         0.0786 
    104 H104       25.8104   -3.6857   -2.0686 H         1 UNK         0.2977 
    105 H105       25.4112    0.5797   -5.0436 H         1 UNK         0.3127 
    106 H106       24.8075    3.3515   -4.4823 H         1 UNK         0.0770 
    107 H107       23.2311    1.5240   -3.8809 H         1 UNK         0.0814 
    108 H108       23.0448    1.0913   -5.5807 H         1 UNK         0.0814 
    109 H109       22.4740    2.6470   -4.9979 H         1 UNK         0.0814 
    110 H110       25.0384    1.3442   -7.4197 H         1 UNK         0.2983 
    111 H111       24.3309    3.4120   -9.2911 H         1 UNK         0.0947 
    112 H112       25.1677    1.7612  -10.9590 H         1 UNK         0.0806 
    113 H113       24.1507    0.9591   -9.7716 H         1 UNK         0.0806 
    114 H114       25.9047    0.8062   -9.6806 H         1 UNK         0.0806 
    115 H115       27.2022    2.8681   -7.5019 H         1 UNK         0.3000 
    116 H116       29.2738    3.6220   -7.4516 H         1 UNK         0.0850 
    117 H117       29.8164    5.8727   -8.3087 H         1 UNK         0.0810 
    118 H118       28.2309    5.8951   -7.5536 H         1 UNK         0.0810 
    119 H119       28.3742    5.8889   -9.3112 H         1 UNK         0.0810 
    120 H120       28.9266    1.4815   -8.9751 H         1 UNK         0.3040 
    121 H121       30.1811    1.8160  -11.6336 H         1 UNK         0.0766 
    122 H122       28.1005    0.4524  -11.3705 H         1 UNK         0.0812 
    123 H123       28.9445   -0.6303  -10.2661 H         1 UNK         0.0812 
    124 H124       29.4381   -0.5250  -11.9490 H         1 UNK         0.0812 
    125 H125       31.5032    1.6920   -8.6931 H         1 UNK         0.3205 
    126 H126       33.4238    1.0745   -7.7347 H         1 UNK         0.0754 
    127 H127       35.4482    1.1506   -9.1547 H         1 UNK         0.0769 
    128 H128       34.3254    2.4042   -9.6531 H         1 UNK         0.0769 
    129 H129       34.4834    0.9306  -10.6077 H         1 UNK         0.0769 
    130 H130       31.6634   -0.9952   -7.8763 H         1 UNK         0.2981 
    131 H131       31.3874   -3.1257   -7.4963 H         1 UNK         0.0541 
    132 H132       32.0806   -2.1005  -10.5006 H         1 UNK         0.3459 
    133 H133       31.9753   -3.6437  -11.3082 H         1 UNK         0.3459 
    134 H134       33.1636   -4.6722   -6.8075 H         1 UNK         0.0612 
    135 H135       34.3959   -3.6429   -7.4811 H         1 UNK         0.0612 
    136 H136       32.3996   -4.4781   -4.1933 H         1 UNK         0.0624 
    137 H137       31.3046   -3.5147   -5.1611 H         1 UNK         0.0624 
@<TRIPOS>BOND
     1    1    2 1    
     2    1   72 1    
     3    1   73 1    
     4    1   74 1    
     5    2    3 2    
     6    2    4 am   BACKBONE|DICT|INTERRES
     7    4    5 1    
     8    4   75 1    
     9    5    6 1    
    10    5   35 1    
    11    5   76 1    
    12    6    7 1    
    13    6   77 1    
    14    6   78 1    
    15    7    8 1    
    16    8    9 1    
    17    8   79 1    
    18    8   80 1    
    19    9   10 ar   
    20    9   14 ar   
    21   10   11 ar   
    22   10   81 1    
    23   11   12 ar   
    24   11   71 1    
    25   12   13 ar   
    26   12   82 1    
    27   13   14 ar   
    28   13   15 1    
    29   14   83 1    
    30   15   16 1    
    31   15   84 1    
    32   15   85 1    
    33   16   17 1    
    34   17   18 1    
    35   17   86 1    
    36   17   87 1    
    37   18   19 1    
    38   18   37 1    
    39   18   88 1    
    40   19   20 am   BACKBONE|DICT|INTERRES
    41   19   89 1    
    42   20   21 2    
    43   20   22 1    
    44   22   23 1    
    45   22   24 1    
    46   22   90 1    
    47   23   91 1    
    48   23   92 1    
    49   23   93 1    
    50   24   25 am   BACKBONE|DICT|INTERRES
    51   24   94 1    
    52   25   26 2    
    53   25   27 1    
    54   27   28 1    
    55   27   29 1    
    56   27   95 1    
    57   28   96 1    
    58   28   97 1    
    59   28   98 1    
    60   29   30 am   BACKBONE|DICT|INTERRES
    61   29   99 1    
    62   30   31 2    
    63   30   32 1    
    64   32   33 1    
    65   32   34 1    
    66   32  100 1    
    67   33  101 1    
    68   33  102 1    
    69   33  103 1    
    70   34   35 am   BACKBONE|DICT|INTERRES
    71   34  104 1    
    72   35   36 2    
    73   37   38 2    
    74   37   39 am   BACKBONE|DICT|INTERRES
    75   39   40 1    
    76   39  105 1    
    77   40   41 1    
    78   40   42 1    
    79   40  106 1    
    80   41  107 1    
    81   41  108 1    
    82   41  109 1    
    83   42   43 2    
    84   42   44 am   BACKBONE|DICT|INTERRES
    85   44   45 1    
    86   44  110 1    
    87   45   46 1    
    88   45   47 1    
    89   45  111 1    
    90   46  112 1    
    91   46  113 1    
    92   46  114 1    
    93   47   48 2    
    94   47   49 am   BACKBONE|DICT|INTERRES
    95   49   50 1    
    96   49  115 1    
    97   50   51 1    
    98   50   52 1    
    99   50  116 1    
   100   51  117 1    
   101   51  118 1    
   102   51  119 1    
   103   52   53 2    
   104   52   54 am   BACKBONE|DICT|INTERRES
   105   54   55 1    
   106   54  120 1    
   107   55   56 1    
   108   55   57 1    
   109   55  121 1    
   110   56  122 1    
   111   56  123 1    
   112   56  124 1    
   113   57   58 2    
   114   57   59 am   BACKBONE|DICT|INTERRES
   115   59   60 1    
   116   59  125 1    
   117   60   61 1    
   118   60   62 1    
   119   60  126 1    
   120   61  127 1    
   121   61  128 1    
   122   61  129 1    
   123   62   63 2    
   124   62   64 am   BACKBONE|DICT|INTERRES
   125   64   65 1    
   126   64  130 1    
   127   65   66 1    
   128   65   69 1    
   129   65  131 1    
   130   66   67 am   BACKBONE|DICT|INTERRES
   131   66   68 2    
   132   67  132 1    
   133   67  133 1    
   134   69   70 1    
   135   69  134 1    
   136   69  135 1    
   137   70   71 1    
   138   71  136 1    
   139   71  137 1    
@<TRIPOS>SUBSTRUCTURE
     1 UNK         1 GROUP             0       ****    0 ROOT    
