@<TRIPOS>MOLECULE
3R137
137   139    1
SMALL
USER_CHARGES


@<TRIPOS>ATOM
      1 CA         23.0027   -3.3709   -0.6579 C.3       0 UNK        -0.2020 
      2 C          24.4862   -3.0449   -0.5825 C.2       0 UNK         0.4855 
      3 O          24.8551   -1.9438   -0.1718 O.2       0 UNK        -0.5197 
      4 N          25.3413   -3.9999   -0.9707 N.am      1 UNK        -0.4892 
      5 CA         26.8009   -3.8593   -0.9609 C.3       1 UNK         0.0835 
      6 C6         27.5060   -5.2327   -1.0854 C.3       12 UNK        -0.0855 
      7 S7         29.2107   -5.1973   -0.4233 S.3       12 UNK        -0.2931 
      8 C8         30.1590   -6.0933   -1.6952 C.3       12 UNK         0.0378 
      9 C9         30.2894   -5.3138   -2.9974 C.ar      12 UNK        -0.0802 
     10 C10        31.2711   -4.3266   -3.1423 C.ar      12 UNK        -0.0944 
     11 C11        31.4221   -3.6427   -4.3554 C.ar      12 UNK        -0.0787 
     12 C12        30.5824   -3.9609   -5.4268 C.ar      12 UNK        -0.0862 
     13 C13        29.5768   -4.9203   -5.2822 C.ar      12 UNK        -0.0733 
     14 C14        29.4459   -5.6044   -4.0726 C.ar      12 UNK        -0.0832 
     15 C15        28.6095   -5.2006   -6.4202 C.3       12 UNK         0.0240 
     16 S16        27.1057   -4.1892   -6.2510 S.3       12 UNK        -0.2522 
     17 C17        27.7885   -2.5324   -6.5793 C.3       12 UNK        -0.0967 
     18 CA         26.6886   -1.4864   -6.8473 C.3       5 UNK         0.0660 
     19 N          25.8734   -1.2308   -5.6556 N.am      5 UNK        -0.4015 
     20 C          24.6928   -0.5968   -5.6684 C.2       4 UNK         0.4946 
     21 O          24.1753   -0.1286   -6.6837 O.2       4 UNK        -0.5353 
     22 CA         23.9738   -0.4520   -4.3203 C.3       4 UNK         0.0277 
     23 CB         23.2769   -1.7641   -3.9287 C.3       4 UNK        -0.1981 
     24 N          24.8996   -0.0381   -3.2646 N.am      4 UNK        -0.4209 
     25 C          25.2846    1.2319   -3.0705 C.2       3 UNK         0.4942 
     26 O          24.8236    2.1889   -3.6932 O.2       3 UNK        -0.5208 
     27 CA         26.3780    1.4890   -2.0177 C.3       3 UNK         0.0250 
     28 CB         25.7482    1.7644   -0.6430 C.3       3 UNK        -0.1990 
     29 N          27.3527    0.4021   -1.8960 N.am      3 UNK        -0.4232 
     30 C          28.1768   -0.0024   -2.8740 C.2       2 UNK         0.4993 
     31 O          28.2020    0.4939   -3.9962 O.2       2 UNK        -0.5286 
     32 CA         29.0808   -1.2054   -2.5689 C.3       2 UNK         0.0209 
     33 CB         30.3775   -0.7439   -1.8852 C.3       2 UNK        -0.1931 
     34 N          28.4355   -2.2233   -1.7389 N.am      2 UNK        -0.4546 
     35 C          27.2855   -2.8486   -2.0229 C.2       1 UNK         0.5154 
     36 O          26.6181   -2.6343   -3.0411 O.2       1 UNK        -0.5181 
     37 C          27.2952   -0.2135   -7.4741 C.2       5 UNK         0.5014 
     38 O          27.6029   -0.2454   -8.6662 O.2       5 UNK        -0.5248 
     39 N          27.4399    0.8746   -6.7009 N.am      6 UNK        -0.4434 
     40 CA         27.9975    2.1823   -7.0841 C.3       6 UNK         0.0363 
     41 CB         27.8310    3.1590   -5.9066 C.3       6 UNK        -0.1936 
     42 C          27.4277    2.8253   -8.3641 C.2       6 UNK         0.5081 
     43 O          28.0783    3.6986   -8.9384 O.2       6 UNK        -0.5248 
     44 N          26.2386    2.3895   -8.8002 N.am      7 UNK        -0.4718 
     45 CA         25.6339    2.7488  -10.0838 C.3       7 UNK         0.0273 
     46 CB         24.1840    2.2384  -10.1075 C.3       7 UNK        -0.1935 
     47 C          26.4097    2.2215  -11.3096 C.2       7 UNK         0.5018 
     48 O          26.2316    2.7719  -12.3976 O.2       7 UNK        -0.5186 
     49 N          27.2345    1.1787  -11.1301 N.am      8 UNK        -0.4240 
     50 CA         28.0313    0.5558  -12.1897 C.3       8 UNK         0.0235 
     51 CB         27.3209   -0.7154  -12.6860 C.3       8 UNK        -0.2000 
     52 C          29.4698    0.2375  -11.7521 C.2       8 UNK         0.4941 
     53 O          30.3838    0.4010  -12.5622 O.2       8 UNK        -0.5273 
     54 N          29.6615   -0.2300  -10.5113 N.am      9 UNK        -0.4262 
     55 CA         30.9663   -0.6099   -9.9678 C.3       9 UNK         0.0264 
     56 CB         30.7671   -1.5995   -8.8092 C.3       9 UNK        -0.1955 
     57 C          31.7458    0.6153   -9.4752 C.2       9 UNK         0.5031 
     58 O          31.1520    1.5497   -8.9305 O.2       9 UNK        -0.5390 
     59 N          33.0769    0.5569   -9.6001 N.am      10 UNK        -0.4204 
     60 CA         34.0194    1.5814   -9.1401 C.3       10 UNK         0.0237 
     61 CB         35.3230    1.4586   -9.9526 C.3       10 UNK        -0.1985 
     62 C          34.2591    1.5223   -7.6159 C.2       10 UNK         0.4970 
     63 O          35.4088    1.4697   -7.1744 O.2       10 UNK        -0.4914 
     64 N          33.1705    1.5302   -6.8420 N.am      11 UNK        -0.4285 
     65 CA         33.1628    1.5225   -5.3728 C.3       11 UNK         0.1007 
     66 C          32.0308    2.3884   -4.7494 C.2       11 UNK         0.5703 
     67 N          31.2896    3.1714   -5.5260 N.am      11 UNK        -0.7361 
     68 O          31.8478    2.3882   -3.5348 O.2       11 UNK        -0.4986 
     69 C69        33.2710    0.0891   -4.7821 C.3       12 UNK        -0.0947 
     70 S70        31.8648   -1.0043   -5.1750 S.3       12 UNK        -0.2240 
     71 C71        32.5040   -2.5788   -4.5105 C.3       12 UNK         0.0194 
     72 H72        22.4160   -2.4600   -0.7726 H         1 UNK         0.0906 
     73 H73        22.7813   -4.0242   -1.5017 H         1 UNK         0.0906 
     74 H74        22.6805   -3.8661    0.2576 H         1 UNK         0.0906 
     75 H75        24.9825   -4.8705   -1.3362 H         1 UNK         0.3140 
     76 H76        27.0522   -3.4438    0.0183 H         1 UNK         0.1085 
     77 H77        26.9657   -5.9819   -0.5042 H         1 UNK         0.0836 
     78 H78        27.4850   -5.5895   -2.1149 H         1 UNK         0.0836 
     79 H79        31.1547   -6.3041   -1.3021 H         1 UNK         0.0731 
     80 H80        29.6954   -7.0652   -1.8723 H         1 UNK         0.0731 
     81 H81        31.9225   -4.0990   -2.3096 H         1 UNK         0.1312 
     82 H82        30.6941   -3.4379   -6.3663 H         1 UNK         0.1406 
     83 H83        28.6789   -6.3598   -3.9702 H         1 UNK         0.1631 
     84 H84        28.3299   -6.2552   -6.4207 H         1 UNK         0.0717 
     85 H85        29.0807   -5.0088   -7.3855 H         1 UNK         0.0717 
     86 H86        28.4128   -2.2220   -5.7396 H         1 UNK         0.0934 
     87 H87        28.4459   -2.6239   -7.4443 H         1 UNK         0.0934 
     88 H88        26.0206   -1.8984   -7.6073 H         1 UNK         0.0739 
     89 H89        26.2093   -1.6302   -4.7842 H         1 UNK         0.3093 
     90 H90        23.2011    0.3115   -4.4363 H         1 UNK         0.0818 
     91 H91        22.6742   -1.6317   -3.0313 H         1 UNK         0.0819 
     92 H92        22.6048   -2.0996   -4.7198 H         1 UNK         0.0819 
     93 H93        23.9898   -2.5686   -3.7444 H         1 UNK         0.0819 
     94 H94        25.3487   -0.7728   -2.7315 H         1 UNK         0.3041 
     95 H95        26.9235    2.3824   -2.3295 H         1 UNK         0.0784 
     96 H96        25.0335    2.5868   -0.6989 H         1 UNK         0.0793 
     97 H97        25.2133    0.8929   -0.2626 H         1 UNK         0.0793 
     98 H98        26.5035    2.0433    0.0920 H         1 UNK         0.0793 
     99 H99        27.3810   -0.0882   -1.0137 H         1 UNK         0.3024 
    100 H100       29.3363   -1.6728   -3.5220 H         1 UNK         0.1171 
    101 H101       30.8756    0.0257   -2.4758 H         1 UNK         0.0786 
    102 H102       31.0817   -1.5680   -1.7728 H         1 UNK         0.0786 
    103 H103       30.1890   -0.3228   -0.8971 H         1 UNK         0.0786 
    104 H104       28.9319   -2.4989   -0.9031 H         1 UNK         0.2977 
    105 H105       27.2865    0.7540   -5.7034 H         1 UNK         0.3127 
    106 H106       29.0641    2.0301   -7.2567 H         1 UNK         0.0770 
    107 H107       26.7848    3.2612   -5.6153 H         1 UNK         0.0814 
    108 H108       28.1978    4.1539   -6.1627 H         1 UNK         0.0814 
    109 H109       28.3915    2.8315   -5.0323 H         1 UNK         0.0814 
    110 H110       25.7697    1.6760   -8.2588 H         1 UNK         0.2983 
    111 H111       25.6179    3.8385  -10.1551 H         1 UNK         0.0947 
    112 H112       23.6886    2.5098  -11.0408 H         1 UNK         0.0806 
    113 H113       23.5981    2.6680   -9.2946 H         1 UNK         0.0806 
    114 H114       24.1378    1.1522  -10.0169 H         1 UNK         0.0806 
    115 H115       27.3237    0.7862  -10.1958 H         1 UNK         0.3000 
    116 H116       28.1176    1.2442  -13.0334 H         1 UNK         0.0850 
    117 H117       27.8984   -1.2063  -13.4706 H         1 UNK         0.0810 
    118 H118       26.3407   -0.4831  -13.1026 H         1 UNK         0.0810 
    119 H119       27.1802   -1.4376  -11.8807 H         1 UNK         0.0810 
    120 H120       28.8750   -0.2919   -9.8669 H         1 UNK         0.3040 
    121 H121       31.5405   -1.1090  -10.7516 H         1 UNK         0.0766 
    122 H122       31.7253   -1.9561   -8.4287 H         1 UNK         0.0812 
    123 H123       30.1989   -2.4738   -9.1266 H         1 UNK         0.0812 
    124 H124       30.2433   -1.1343   -7.9733 H         1 UNK         0.0812 
    125 H125       33.4862   -0.2700  -10.0115 H         1 UNK         0.3205 
    126 H126       33.5925    2.5640   -9.3528 H         1 UNK         0.0754 
    127 H127       36.0297    2.2443   -9.6814 H         1 UNK         0.0769 
    128 H128       35.1344    1.5539  -11.0222 H         1 UNK         0.0769 
    129 H129       35.8174    0.5013   -9.7821 H         1 UNK         0.0769 
    130 H130       32.2627    1.5498   -7.2964 H         1 UNK         0.2981 
    131 H131       34.0638    2.0492   -5.0532 H         1 UNK         0.0541 
    132 H132       31.4483    3.2306   -6.5184 H         1 UNK         0.3459 
    133 H133       30.5796    3.7404   -5.0957 H         1 UNK         0.3459 
    134 H134       33.3772    0.1354   -3.6969 H         1 UNK         0.0612 
    135 H135       34.1830   -0.3852   -5.1476 H         1 UNK         0.0612 
    136 H136       32.9792   -2.3843   -3.5478 H         1 UNK         0.0624 
    137 H137       33.2837   -2.9550   -5.1739 H         1 UNK         0.0624 
@<TRIPOS>BOND
     1    1    2 1    
     2    1   72 1    
     3    1   73 1    
     4    1   74 1    
     5    2    3 2    
     6    2    4 am   BACKBONE|DICT|INTERRES
     7    4    5 1    
     8    4   75 1    
     9    5    6 1    
    10    5   35 1    
    11    5   76 1    
    12    6    7 1    
    13    6   77 1    
    14    6   78 1    
    15    7    8 1    
    16    8    9 1    
    17    8   79 1    
    18    8   80 1    
    19    9   10 ar   
    20    9   14 ar   
    21   10   11 ar   
    22   10   81 1    
    23   11   12 ar   
    24   11   71 1    
    25   12   13 ar   
    26   12   82 1    
    27   13   14 ar   
    28   13   15 1    
    29   14   83 1    
    30   15   16 1    
    31   15   84 1    
    32   15   85 1    
    33   16   17 1    
    34   17   18 1    
    35   17   86 1    
    36   17   87 1    
    37   18   19 1    
    38   18   37 1    
    39   18   88 1    
    40   19   20 am   BACKBONE|DICT|INTERRES
    41   19   89 1    
    42   20   21 2    
    43   20   22 1    
    44   22   23 1    
    45   22   24 1    
    46   22   90 1    
    47   23   91 1    
    48   23   92 1    
    49   23   93 1    
    50   24   25 am   BACKBONE|DICT|INTERRES
    51   24   94 1    
    52   25   26 2    
    53   25   27 1    
    54   27   28 1    
    55   27   29 1    
    56   27   95 1    
    57   28   96 1    
    58   28   97 1    
    59   28   98 1    
    60   29   30 am   BACKBONE|DICT|INTERRES
    61   29   99 1    
    62   30   31 2    
    63   30   32 1    
    64   32   33 1    
    65   32   34 1    
    66   32  100 1    
    67   33  101 1    
    68   33  102 1    
    69   33  103 1    
    70   34   35 am   BACKBONE|DICT|INTERRES
    71   34  104 1    
    72   35   36 2    
    73   37   38 2    
    74   37   39 am   BACKBONE|DICT|INTERRES
    75   39   40 1    
    76   39  105 1    
    77   40   41 1    
    78   40   42 1    
    79   40  106 1    
    80   41  107 1    
    81   41  108 1    
    82   41  109 1    
    83   42   43 2    
    84   42   44 am   BACKBONE|DICT|INTERRES
    85   44   45 1    
    86   44  110 1    
    87   45   46 1    
    88   45   47 1    
    89   45  111 1    
    90   46  112 1    
    91   46  113 1    
    92   46  114 1    
    93   47   48 2    
    94   47   49 am   BACKBONE|DICT|INTERRES
    95   49   50 1    
    96   49  115 1    
    97   50   51 1    
    98   50   52 1    
    99   50  116 1    
   100   51  117 1    
   101   51  118 1    
   102   51  119 1    
   103   52   53 2    
   104   52   54 am   BACKBONE|DICT|INTERRES
   105   54   55 1    
   106   54  120 1    
   107   55   56 1    
   108   55   57 1    
   109   55  121 1    
   110   56  122 1    
   111   56  123 1    
   112   56  124 1    
   113   57   58 2    
   114   57   59 am   BACKBONE|DICT|INTERRES
   115   59   60 1    
   116   59  125 1    
   117   60   61 1    
   118   60   62 1    
   119   60  126 1    
   120   61  127 1    
   121   61  128 1    
   122   61  129 1    
   123   62   63 2    
   124   62   64 am   BACKBONE|DICT|INTERRES
   125   64   65 1    
   126   64  130 1    
   127   65   66 1    
   128   65   69 1    
   129   65  131 1    
   130   66   67 am   BACKBONE|DICT|INTERRES
   131   66   68 2    
   132   67  132 1    
   133   67  133 1    
   134   69   70 1    
   135   69  134 1    
   136   69  135 1    
   137   70   71 1    
   138   71  136 1    
   139   71  137 1    
@<TRIPOS>SUBSTRUCTURE
     1 UNK         1 GROUP             0       ****    0 ROOT    
