@<TRIPOS>MOLECULE
3R137
137   139    1
SMALL
USER_CHARGES


@<TRIPOS>ATOM
      1 CA         29.8919   -4.9697   -2.1758 C.3       0 UNK        -0.2020 
      2 C          29.1285   -4.0399   -1.2454 C.2       0 UNK         0.4855 
      3 O          28.6121   -4.4839   -0.2200 O.2       0 UNK        -0.5197 
      4 N          29.0619   -2.7492   -1.5948 N.am      1 UNK        -0.4892 
      5 CA         28.4249   -1.6845   -0.8060 C.3       1 UNK         0.0835 
      6 C6         28.7482   -0.2723   -1.3579 C.3       12 UNK        -0.0855 
      7 S7         30.5257    0.0384   -1.6306 S.3       12 UNK        -0.2931 
      8 C8         30.5680    0.2709   -3.4360 C.3       12 UNK         0.0378 
      9 C9         30.6514   -1.0563   -4.1774 C.ar      12 UNK        -0.0802 
     10 C10        31.9060   -1.6159   -4.4283 C.ar      12 UNK        -0.0944 
     11 C11        32.0304   -2.8290   -5.1158 C.ar      12 UNK        -0.0787 
     12 C12        30.8703   -3.4892   -5.5312 C.ar      12 UNK        -0.0862 
     13 C13        29.6039   -2.9583   -5.2629 C.ar      12 UNK        -0.0733 
     14 C14        29.4995   -1.7279   -4.6042 C.ar      12 UNK        -0.0832 
     15 C15        28.3597   -3.7568   -5.6312 C.3       12 UNK         0.0240 
     16 S16        27.5223   -3.1023   -7.1073 S.3       12 UNK        -0.2522 
     17 C17        26.2628   -2.0076   -6.3717 C.3       12 UNK        -0.0967 
     18 CA         24.9846   -1.9115   -7.2422 C.3       5 UNK         0.0660 
     19 N          23.8303   -1.4620   -6.4587 N.am      5 UNK        -0.4015 
     20 C          22.5620   -1.4793   -6.8995 C.2       4 UNK         0.4946 
     21 O          22.2442   -1.8853   -8.0192 O.2       4 UNK        -0.5353 
     22 CA         21.4426   -1.0126   -5.9465 C.3       4 UNK         0.0277 
     23 CB         20.3683   -2.1044   -5.7896 C.3       4 UNK        -0.1981 
     24 N          21.9231   -0.6439   -4.6141 N.am      4 UNK        -0.4209 
     25 C          22.3521    0.5726   -4.2537 C.2       3 UNK         0.4942 
     26 O          22.3729    1.5447   -5.0086 O.2       3 UNK        -0.5208 
     27 CA         22.8544    0.7277   -2.8054 C.3       3 UNK         0.0250 
     28 CB         21.7458    1.3086   -1.9123 C.3       3 UNK        -0.1990 
     29 N          23.3532   -0.5198   -2.2097 N.am      3 UNK        -0.4232 
     30 C          24.4430   -1.1720   -2.6346 C.2       2 UNK         0.4993 
     31 O          25.1191   -0.8110   -3.6008 O.2       2 UNK        -0.5286 
     32 CA         24.8225   -2.4637   -1.8952 C.3       2 UNK         0.0209 
     33 CB         24.4069   -3.6975   -2.7138 C.3       2 UNK        -0.1931 
     34 N          26.2684   -2.4889   -1.6822 N.am      2 UNK        -0.4546 
     35 C          26.8913   -1.8247   -0.6994 C.2       1 UNK         0.5154 
     36 O          26.3000   -1.2891    0.2399 O.2       1 UNK        -0.5181 
     37 C          25.2245   -1.0122   -8.4717 C.2       5 UNK         0.5014 
     38 O          25.2124    0.2138   -8.3465 O.2       5 UNK        -0.5248 
     39 N          25.5110   -1.6370   -9.6216 N.am      6 UNK        -0.4434 
     40 CA         25.9787   -0.9536  -10.8323 C.3       6 UNK         0.0363 
     41 CB         25.8441   -1.9012  -12.0351 C.3       6 UNK        -0.1936 
     42 C          27.4304   -0.4543  -10.7006 C.2       6 UNK         0.5081 
     43 O          27.8079    0.5007  -11.3784 O.2       6 UNK        -0.5248 
     44 N          28.2079   -1.0963   -9.8187 N.am      7 UNK        -0.4718 
     45 CA         29.5986   -0.7733   -9.5007 C.3       7 UNK         0.0273 
     46 CB         30.3956   -2.0879   -9.4180 C.3       7 UNK        -0.1935 
     47 C          29.7136    0.0479   -8.2015 C.2       7 UNK         0.5018 
     48 O          30.7744    0.0408   -7.5775 O.2       7 UNK        -0.5186 
     49 N          28.6371    0.7526   -7.8117 N.am      8 UNK        -0.4240 
     50 CA         28.5528    1.5666   -6.5914 C.3       8 UNK         0.0235 
     51 CB         27.1433    2.1624   -6.4508 C.3       8 UNK        -0.2000 
     52 C          29.6157    2.6751   -6.4781 C.2       8 UNK         0.4941 
     53 O          29.9861    3.0453   -5.3627 O.2       8 UNK        -0.5273 
     54 N          30.1205    3.1606   -7.6199 N.am      9 UNK        -0.4262 
     55 CA         31.2379    4.0995   -7.7256 C.3       9 UNK         0.0264 
     56 CB         31.2063    4.7515   -9.1207 C.3       9 UNK        -0.1955 
     57 C          32.5876    3.4153   -7.4217 C.2       9 UNK         0.5031 
     58 O          33.4340    3.3043   -8.3107 O.2       9 UNK        -0.5390 
     59 N          32.7484    2.9542   -6.1726 N.am      10 UNK        -0.4204 
     60 CA         33.9487    2.3452   -5.5819 C.3       10 UNK         0.0237 
     61 CB         35.0075    3.4348   -5.3097 C.3       10 UNK        -0.1985 
     62 C          34.5099    1.1583   -6.3930 C.2       10 UNK         0.4970 
     63 O          35.7141    1.1047   -6.6510 O.2       10 UNK        -0.4914 
     64 N          33.6166    0.2448   -6.7913 N.am      11 UNK        -0.4285 
     65 CA         33.8756   -0.9263   -7.6445 C.3       11 UNK         0.1007 
     66 C          34.0792   -0.5898   -9.1530 C.2       11 UNK         0.5703 
     67 N          33.9337    0.6530   -9.5997 N.am      11 UNK        -0.7361 
     68 O          34.3449   -1.4858   -9.9509 O.2       11 UNK        -0.4986 
     69 C69        34.9685   -1.9022   -7.1136 C.3       12 UNK        -0.0947 
     70 S70        34.8218   -2.3611   -5.3539 S.3       12 UNK        -0.2240 
     71 C71        33.3875   -3.4933   -5.3608 C.3       12 UNK         0.0194 
     72 H72        29.2025   -5.4889   -2.8408 H         1 UNK         0.0906 
     73 H73        30.6136   -4.4239   -2.7829 H         1 UNK         0.0906 
     74 H74        30.4392   -5.7160   -1.6005 H         1 UNK         0.0906 
     75 H75        29.5528   -2.4349   -2.4220 H         1 UNK         0.3140 
     76 H76        28.8221   -1.7527    0.2092 H         1 UNK         0.1085 
     77 H77        28.3937    0.4883   -0.6589 H         1 UNK         0.0836 
     78 H78        28.2007   -0.0904   -2.2848 H         1 UNK         0.0836 
     79 H79        31.4332    0.8856   -3.6884 H         1 UNK         0.0731 
     80 H80        29.6985    0.8456   -3.7509 H         1 UNK         0.0731 
     81 H81        32.7854   -1.0993   -4.0716 H         1 UNK         0.1312 
     82 H82        30.9535   -4.4416   -6.0370 H         1 UNK         0.1406 
     83 H83        28.5228   -1.3081   -4.4062 H         1 UNK         0.1631 
     84 H84        27.6781   -3.7956   -4.7810 H         1 UNK         0.0717 
     85 H85        28.6301   -4.7943   -5.8333 H         1 UNK         0.0717 
     86 H86        25.9988   -2.4198   -5.3991 H         1 UNK         0.0934 
     87 H87        26.6960   -1.0258   -6.1728 H         1 UNK         0.0934 
     88 H88        24.7364   -2.9161   -7.5930 H         1 UNK         0.0739 
     89 H89        24.0310   -1.0816   -5.5423 H         1 UNK         0.3093 
     90 H90        20.9729   -0.1427   -6.4107 H         1 UNK         0.0818 
     91 H91        20.7804   -3.0188   -5.3609 H         1 UNK         0.0819 
     92 H92        19.5528   -1.7697   -5.1481 H         1 UNK         0.0819 
     93 H93        19.9288   -2.3661   -6.7532 H         1 UNK         0.0819 
     94 H94        21.9402   -1.3775   -3.9208 H         1 UNK         0.3041 
     95 H95        23.6828    1.4394   -2.8269 H         1 UNK         0.0784 
     96 H96        21.3741    2.2520   -2.3154 H         1 UNK         0.0793 
     97 H97        20.8946    0.6314   -1.8313 H         1 UNK         0.0793 
     98 H98        22.1119    1.5119   -0.9057 H         1 UNK         0.0793 
     99 H99        22.8440   -0.8760   -1.4129 H         1 UNK         0.3024 
    100 H100       24.3134   -2.4959   -0.9289 H         1 UNK         0.1171 
    101 H101       24.8817   -3.7169   -3.6951 H         1 UNK         0.0786 
    102 H102       23.3281   -3.7161   -2.8734 H         1 UNK         0.0786 
    103 H103       24.6720   -4.6204   -2.1975 H         1 UNK         0.0786 
    104 H104       26.8332   -2.8726   -2.4244 H         1 UNK         0.2977 
    105 H105       25.4927   -2.6471   -9.6477 H         1 UNK         0.3127 
    106 H106       25.3426   -0.0830  -11.0078 H         1 UNK         0.0770 
    107 H107       26.4580   -2.7951  -11.9179 H         1 UNK         0.0814 
    108 H108       26.1598   -1.4082  -12.9557 H         1 UNK         0.0814 
    109 H109       24.8107   -2.2178  -12.1776 H         1 UNK         0.0814 
    110 H110       27.8004   -1.8495   -9.2804 H         1 UNK         0.2983 
    111 H111       30.0303   -0.1679  -10.3006 H         1 UNK         0.0947 
    112 H112       30.1377   -2.6651   -8.5294 H         1 UNK         0.0806 
    113 H113       31.4652   -1.8920   -9.3785 H         1 UNK         0.0806 
    114 H114       30.2219   -2.7170  -10.2911 H         1 UNK         0.0806 
    115 H115       27.8029    0.7001   -8.3797 H         1 UNK         0.3000 
    116 H116       28.7114    0.8866   -5.7561 H         1 UNK         0.0850 
    117 H117       27.0803    2.8242   -5.5856 H         1 UNK         0.0810 
    118 H118       26.3945    1.3848   -6.3048 H         1 UNK         0.0810 
    119 H119       26.8595    2.7437   -7.3288 H         1 UNK         0.0810 
    120 H120       29.7752    2.7745   -8.4862 H         1 UNK         0.3040 
    121 H121       31.1007    4.8912   -6.9858 H         1 UNK         0.0766 
    122 H122       30.2695    5.2826   -9.2900 H         1 UNK         0.0812 
    123 H123       31.3231    4.0136   -9.9155 H         1 UNK         0.0812 
    124 H124       32.0128    5.4780   -9.2298 H         1 UNK         0.0812 
    125 H125       31.9390    3.0356   -5.5615 H         1 UNK         0.3205 
    126 H126       33.6439    1.9341   -4.6184 H         1 UNK         0.0754 
    127 H127       35.8682    3.0234   -4.7807 H         1 UNK         0.0769 
    128 H128       34.6025    4.2359   -4.6913 H         1 UNK         0.0769 
    129 H129       35.3745    3.8792   -6.2358 H         1 UNK         0.0769 
    130 H130       32.6316    0.4004   -6.6091 H         1 UNK         0.2981 
    131 H131       32.9402   -1.4830   -7.6158 H         1 UNK         0.0541 
    132 H132       33.7367    1.4231   -8.9700 H         1 UNK         0.3459 
    133 H133       34.0622    0.8355  -10.5815 H         1 UNK         0.3459 
    134 H134       34.9670   -2.8240   -7.6978 H         1 UNK         0.0612 
    135 H135       35.9594   -1.4685   -7.2550 H         1 UNK         0.0612 
    136 H136       33.5419   -4.2335   -4.5750 H         1 UNK         0.0624 
    137 H137       33.3725   -4.0442   -6.3023 H         1 UNK         0.0624 
@<TRIPOS>BOND
     1    1    2 1    
     2    1   72 1    
     3    1   73 1    
     4    1   74 1    
     5    2    3 2    
     6    2    4 am   BACKBONE|DICT|INTERRES
     7    4    5 1    
     8    4   75 1    
     9    5    6 1    
    10    5   35 1    
    11    5   76 1    
    12    6    7 1    
    13    6   77 1    
    14    6   78 1    
    15    7    8 1    
    16    8    9 1    
    17    8   79 1    
    18    8   80 1    
    19    9   10 ar   
    20    9   14 ar   
    21   10   11 ar   
    22   10   81 1    
    23   11   12 ar   
    24   11   71 1    
    25   12   13 ar   
    26   12   82 1    
    27   13   14 ar   
    28   13   15 1    
    29   14   83 1    
    30   15   16 1    
    31   15   84 1    
    32   15   85 1    
    33   16   17 1    
    34   17   18 1    
    35   17   86 1    
    36   17   87 1    
    37   18   19 1    
    38   18   37 1    
    39   18   88 1    
    40   19   20 am   BACKBONE|DICT|INTERRES
    41   19   89 1    
    42   20   21 2    
    43   20   22 1    
    44   22   23 1    
    45   22   24 1    
    46   22   90 1    
    47   23   91 1    
    48   23   92 1    
    49   23   93 1    
    50   24   25 am   BACKBONE|DICT|INTERRES
    51   24   94 1    
    52   25   26 2    
    53   25   27 1    
    54   27   28 1    
    55   27   29 1    
    56   27   95 1    
    57   28   96 1    
    58   28   97 1    
    59   28   98 1    
    60   29   30 am   BACKBONE|DICT|INTERRES
    61   29   99 1    
    62   30   31 2    
    63   30   32 1    
    64   32   33 1    
    65   32   34 1    
    66   32  100 1    
    67   33  101 1    
    68   33  102 1    
    69   33  103 1    
    70   34   35 am   BACKBONE|DICT|INTERRES
    71   34  104 1    
    72   35   36 2    
    73   37   38 2    
    74   37   39 am   BACKBONE|DICT|INTERRES
    75   39   40 1    
    76   39  105 1    
    77   40   41 1    
    78   40   42 1    
    79   40  106 1    
    80   41  107 1    
    81   41  108 1    
    82   41  109 1    
    83   42   43 2    
    84   42   44 am   BACKBONE|DICT|INTERRES
    85   44   45 1    
    86   44  110 1    
    87   45   46 1    
    88   45   47 1    
    89   45  111 1    
    90   46  112 1    
    91   46  113 1    
    92   46  114 1    
    93   47   48 2    
    94   47   49 am   BACKBONE|DICT|INTERRES
    95   49   50 1    
    96   49  115 1    
    97   50   51 1    
    98   50   52 1    
    99   50  116 1    
   100   51  117 1    
   101   51  118 1    
   102   51  119 1    
   103   52   53 2    
   104   52   54 am   BACKBONE|DICT|INTERRES
   105   54   55 1    
   106   54  120 1    
   107   55   56 1    
   108   55   57 1    
   109   55  121 1    
   110   56  122 1    
   111   56  123 1    
   112   56  124 1    
   113   57   58 2    
   114   57   59 am   BACKBONE|DICT|INTERRES
   115   59   60 1    
   116   59  125 1    
   117   60   61 1    
   118   60   62 1    
   119   60  126 1    
   120   61  127 1    
   121   61  128 1    
   122   61  129 1    
   123   62   63 2    
   124   62   64 am   BACKBONE|DICT|INTERRES
   125   64   65 1    
   126   64  130 1    
   127   65   66 1    
   128   65   69 1    
   129   65  131 1    
   130   66   67 am   BACKBONE|DICT|INTERRES
   131   66   68 2    
   132   67  132 1    
   133   67  133 1    
   134   69   70 1    
   135   69  134 1    
   136   69  135 1    
   137   70   71 1    
   138   71  136 1    
   139   71  137 1    
@<TRIPOS>SUBSTRUCTURE
     1 UNK         1 GROUP             0       ****    0 ROOT    
