@<TRIPOS>MOLECULE
3R137
137   139    1
SMALL
USER_CHARGES


@<TRIPOS>ATOM
      1 CA         26.5160   -5.9617    0.8492 C.3       0 UNK        -0.2020 
      2 C          26.7641   -4.7377   -0.0187 C.2       0 UNK         0.4855 
      3 O          26.5674   -3.6101    0.4373 O.2       0 UNK        -0.5197 
      4 N          27.1866   -4.9438   -1.2723 N.am      1 UNK        -0.4892 
      5 CA         27.4907   -3.8936   -2.2534 C.3       1 UNK         0.0835 
      6 C6         28.5220   -4.3735   -3.3114 C.3       12 UNK        -0.0855 
      7 S7         30.0742   -4.9570   -2.5388 S.3       12 UNK        -0.2931 
      8 C8         31.3657   -4.0979   -3.5061 C.3       12 UNK         0.0378 
      9 C9         31.3849   -2.5732   -3.3847 C.ar      12 UNK        -0.0802 
     10 C10        31.9445   -1.8224   -4.4232 C.ar      12 UNK        -0.0944 
     11 C11        31.9792   -0.4263   -4.3668 C.ar      12 UNK        -0.0787 
     12 C12        31.4729    0.2264   -3.2416 C.ar      12 UNK        -0.0862 
     13 C13        30.8949   -0.5070   -2.2012 C.ar      12 UNK        -0.0733 
     14 C14        30.8728   -1.9031   -2.2674 C.ar      12 UNK        -0.0832 
     15 C15        30.2423    0.2080   -1.0277 C.3       12 UNK         0.0240 
     16 S16        28.8540    1.2679   -1.5542 S.3       12 UNK        -0.2522 
     17 C17        27.8481    0.1513   -2.5996 C.3       12 UNK        -0.0967 
     18 CA         27.9804    0.4414   -4.1203 C.3       5 UNK         0.0660 
     19 N          27.3076   -0.5611   -4.9474 N.am      5 UNK        -0.4015 
     20 C          27.6734   -0.8935   -6.1961 C.2       4 UNK         0.4946 
     21 O          28.7396   -0.5626   -6.7162 O.2       4 UNK        -0.5353 
     22 CA         26.6775   -1.7070   -7.0425 C.3       4 UNK         0.0277 
     23 CB         27.1721   -3.1439   -7.2591 C.3       4 UNK        -0.1981 
     24 N          25.3256   -1.7310   -6.4825 N.am      4 UNK        -0.4209 
     25 C          24.4584   -0.7125   -6.5786 C.2       3 UNK         0.4942 
     26 O          24.7112    0.3441   -7.1563 O.2       3 UNK        -0.5208 
     27 CA         23.1061   -0.8701   -5.8614 C.3       3 UNK         0.0250 
     28 CB         22.0776   -1.5274   -6.7945 C.3       3 UNK        -0.1990 
     29 N          23.1875   -1.6281   -4.6090 N.am      3 UNK        -0.4232 
     30 C          23.9609   -1.3050   -3.5631 C.2       2 UNK         0.4993 
     31 O          24.6871   -0.3092   -3.5429 O.2       2 UNK        -0.5286 
     32 CA         23.9744   -2.2645   -2.3575 C.3       2 UNK         0.0209 
     33 CB         23.0002   -3.4578   -2.4869 C.3       2 UNK        -0.1931 
     34 N          25.3242   -2.7587   -2.0544 N.am      2 UNK        -0.4546 
     35 C          26.1846   -3.3632   -2.8882 C.2       1 UNK         0.5154 
     36 O          25.9635   -3.5368   -4.0883 O.2       1 UNK        -0.5181 
     37 C          27.4456    1.8359   -4.4914 C.2       5 UNK         0.5014 
     38 O          28.2428    2.7269   -4.7822 O.2       5 UNK        -0.5248 
     39 N          26.1117    1.9909   -4.5055 N.am      6 UNK        -0.4434 
     40 CA         25.4079    3.2487   -4.7809 C.3       6 UNK         0.0363 
     41 CB         23.8937    3.0357   -4.6297 C.3       6 UNK        -0.1936 
     42 C          25.7356    3.8602   -6.1544 C.2       6 UNK         0.5081 
     43 O          25.9927    5.0615   -6.2355 O.2       6 UNK        -0.5248 
     44 N          25.7519    3.0233   -7.2001 N.am      7 UNK        -0.4718 
     45 CA         26.1592    3.4069   -8.5558 C.3       7 UNK         0.0273 
     46 CB         25.4259    2.5057   -9.5644 C.3       7 UNK        -0.1935 
     47 C          27.6817    3.3186   -8.7738 C.2       7 UNK         0.5018 
     48 O          28.1559    3.7415   -9.8283 O.2       7 UNK        -0.5186 
     49 N          28.4074    2.7292   -7.8097 N.am      8 UNK        -0.4240 
     50 CA         29.8385    2.3906   -7.8227 C.3       8 UNK         0.0235 
     51 CB         30.7079    3.6643   -7.8331 C.3       8 UNK        -0.2000 
     52 C          30.2420    1.3951   -8.9308 C.2       8 UNK         0.4941 
     53 O          31.4285    1.2774   -9.2384 O.2       8 UNK        -0.5273 
     54 N          29.2612    0.6755   -9.4961 N.am      9 UNK        -0.4262 
     55 CA         29.4088   -0.2502  -10.6212 C.3       9 UNK         0.0264 
     56 CB         28.0244   -0.7769  -11.0321 C.3       9 UNK        -0.1955 
     57 C          30.3720   -1.4169  -10.3537 C.2       9 UNK         0.5031 
     58 O          31.0523   -1.8559  -11.2820 O.2       9 UNK        -0.5390 
     59 N          30.4496   -1.8730   -9.0953 N.am      10 UNK        -0.4204 
     60 CA         31.3888   -2.9144   -8.6671 C.3       10 UNK         0.0237 
     61 CB         30.8870   -3.5583   -7.3641 C.3       10 UNK        -0.1985 
     62 C          32.8483   -2.4291   -8.5442 C.2       10 UNK         0.4970 
     63 O          33.7401   -3.2706   -8.4282 O.2       10 UNK        -0.4914 
     64 N          33.0735   -1.1094   -8.5840 N.am      11 UNK        -0.4285 
     65 CA         34.3979   -0.4692   -8.5772 C.3       11 UNK         0.1007 
     66 C          34.8471   -0.0042   -9.9938 C.2       11 UNK         0.5703 
     67 N          34.0968   -0.2680  -11.0588 N.am      11 UNK        -0.7361 
     68 O          35.9154    0.5860  -10.1378 O.2       11 UNK        -0.4986 
     69 C69        34.4634    0.6842   -7.5378 C.3       12 UNK        -0.0947 
     70 S70        34.2772    0.0801   -5.8271 S.3       12 UNK        -0.2240 
     71 C71        32.5039    0.3705   -5.5508 C.3       12 UNK         0.0194 
     72 H72        25.4740   -5.9912    1.1667 H         1 UNK         0.0906 
     73 H73        26.7363   -6.8887    0.3200 H         1 UNK         0.0906 
     74 H74        27.1429   -5.9227    1.7396 H         1 UNK         0.0906 
     75 H75        27.3245   -5.8899   -1.5993 H         1 UNK         0.3140 
     76 H76        27.9446   -3.0571   -1.7197 H         1 UNK         0.1085 
     77 H77        28.7481   -3.5654   -4.0103 H         1 UNK         0.0836 
     78 H78        28.1119   -5.1881   -3.9114 H         1 UNK         0.0836 
     79 H79        31.2480   -4.3877   -4.5503 H         1 UNK         0.0731 
     80 H80        32.3386   -4.4765   -3.1906 H         1 UNK         0.0731 
     81 H81        32.3558   -2.3227   -5.2883 H         1 UNK         0.1312 
     82 H82        31.4765    1.3070   -3.1956 H         1 UNK         0.1406 
     83 H83        30.4395   -2.4643   -1.4518 H         1 UNK         0.1631 
     84 H84        30.9873    0.8224   -0.5205 H         1 UNK         0.0717 
     85 H85        29.8760   -0.5063   -0.2886 H         1 UNK         0.0717 
     86 H86        28.1405   -0.8769   -2.3976 H         1 UNK         0.0934 
     87 H87        26.8126    0.2315   -2.2683 H         1 UNK         0.0934 
     88 H88        29.0408    0.4239   -4.3735 H         1 UNK         0.0739 
     89 H89        26.3990   -0.8648   -4.6189 H         1 UNK         0.3093 
     90 H90        26.6237   -1.2254   -8.0206 H         1 UNK         0.0818 
     91 H91        28.0716   -3.1455   -7.8721 H         1 UNK         0.0819 
     92 H92        26.4312   -3.7476   -7.7831 H         1 UNK         0.0819 
     93 H93        27.4100   -3.6430   -6.3194 H         1 UNK         0.0819 
     94 H94        25.0808   -2.5411   -5.9249 H         1 UNK         0.3041 
     95 H95        22.7477    0.1301   -5.6133 H         1 UNK         0.0784 
     96 H96        21.9835   -0.9677   -7.7264 H         1 UNK         0.0793 
     97 H97        22.3606   -2.5483   -7.0547 H         1 UNK         0.0793 
     98 H98        21.0884   -1.5583   -6.3372 H         1 UNK         0.0793 
     99 H99        22.6361   -2.4722   -4.5519 H         1 UNK         0.3024 
    100 H100       23.6593   -1.6678   -1.4999 H         1 UNK         0.1171 
    101 H101       23.0099   -4.0650   -1.5815 H         1 UNK         0.0786 
    102 H102       21.9719   -3.1212   -2.6272 H         1 UNK         0.0786 
    103 H103       23.2587   -4.1134   -3.3196 H         1 UNK         0.0786 
    104 H104       25.6059   -2.7037   -1.0796 H         1 UNK         0.2977 
    105 H105       25.5324    1.2018   -4.2251 H         1 UNK         0.3127 
    106 H106       25.7263    3.9642   -4.0200 H         1 UNK         0.0770 
    107 H107       23.5082    2.3456   -5.3798 H         1 UNK         0.0814 
    108 H108       23.3552    3.9770   -4.7480 H         1 UNK         0.0814 
    109 H109       23.6420    2.6389   -3.6460 H         1 UNK         0.0814 
    110 H110       25.4666    2.0541   -7.0664 H         1 UNK         0.2983 
    111 H111       25.8621    4.4409   -8.7448 H         1 UNK         0.0947 
    112 H112       25.6541    2.7977  -10.5905 H         1 UNK         0.0806 
    113 H113       24.3447    2.5726   -9.4425 H         1 UNK         0.0806 
    114 H114       25.7093    1.4584   -9.4530 H         1 UNK         0.0806 
    115 H115       27.9246    2.4856   -6.9540 H         1 UNK         0.3000 
    116 H116       30.0275    1.8744   -6.8803 H         1 UNK         0.0850 
    117 H117       31.7622    3.4204   -7.6959 H         1 UNK         0.0810 
    118 H118       30.4262    4.3408   -7.0262 H         1 UNK         0.0810 
    119 H119       30.6199    4.2067   -8.7748 H         1 UNK         0.0810 
    120 H120       28.3272    0.8146   -9.1425 H         1 UNK         0.3040 
    121 H121       29.8180    0.3231  -11.4557 H         1 UNK         0.0766 
    122 H122       27.3484    0.0381  -11.2920 H         1 UNK         0.0812 
    123 H123       27.5602   -1.3613  -10.2375 H         1 UNK         0.0812 
    124 H124       28.0996   -1.4236  -11.9075 H         1 UNK         0.0812 
    125 H125       29.8850   -1.4292   -8.3778 H         1 UNK         0.3205 
    126 H126       31.4005   -3.6977   -9.4283 H         1 UNK         0.0754 
    127 H127       31.6671   -4.1536   -6.8880 H         1 UNK         0.0769 
    128 H128       30.0581   -4.2373   -7.5596 H         1 UNK         0.0769 
    129 H129       30.5440   -2.8136   -6.6462 H         1 UNK         0.0769 
    130 H130       32.2997   -0.4714   -8.7368 H         1 UNK         0.2981 
    131 H131       35.1480   -1.2044   -8.2812 H         1 UNK         0.0541 
    132 H132       34.4104    0.0349  -11.9671 H         1 UNK         0.3459 
    133 H133       33.2206   -0.7601  -10.9661 H         1 UNK         0.3459 
    134 H134       35.4281    1.1919   -7.5873 H         1 UNK         0.0612 
    135 H135       33.7103    1.4453   -7.7484 H         1 UNK         0.0612 
    136 H136       32.3369    1.4397   -5.4120 H         1 UNK         0.0624 
    137 H137       31.9344    0.0834   -6.4348 H         1 UNK         0.0624 
@<TRIPOS>BOND
     1    1    2 1    
     2    1   72 1    
     3    1   73 1    
     4    1   74 1    
     5    2    3 2    
     6    2    4 am   BACKBONE|DICT|INTERRES
     7    4    5 1    
     8    4   75 1    
     9    5    6 1    
    10    5   35 1    
    11    5   76 1    
    12    6    7 1    
    13    6   77 1    
    14    6   78 1    
    15    7    8 1    
    16    8    9 1    
    17    8   79 1    
    18    8   80 1    
    19    9   10 ar   
    20    9   14 ar   
    21   10   11 ar   
    22   10   81 1    
    23   11   12 ar   
    24   11   71 1    
    25   12   13 ar   
    26   12   82 1    
    27   13   14 ar   
    28   13   15 1    
    29   14   83 1    
    30   15   16 1    
    31   15   84 1    
    32   15   85 1    
    33   16   17 1    
    34   17   18 1    
    35   17   86 1    
    36   17   87 1    
    37   18   19 1    
    38   18   37 1    
    39   18   88 1    
    40   19   20 am   BACKBONE|DICT|INTERRES
    41   19   89 1    
    42   20   21 2    
    43   20   22 1    
    44   22   23 1    
    45   22   24 1    
    46   22   90 1    
    47   23   91 1    
    48   23   92 1    
    49   23   93 1    
    50   24   25 am   BACKBONE|DICT|INTERRES
    51   24   94 1    
    52   25   26 2    
    53   25   27 1    
    54   27   28 1    
    55   27   29 1    
    56   27   95 1    
    57   28   96 1    
    58   28   97 1    
    59   28   98 1    
    60   29   30 am   BACKBONE|DICT|INTERRES
    61   29   99 1    
    62   30   31 2    
    63   30   32 1    
    64   32   33 1    
    65   32   34 1    
    66   32  100 1    
    67   33  101 1    
    68   33  102 1    
    69   33  103 1    
    70   34   35 am   BACKBONE|DICT|INTERRES
    71   34  104 1    
    72   35   36 2    
    73   37   38 2    
    74   37   39 am   BACKBONE|DICT|INTERRES
    75   39   40 1    
    76   39  105 1    
    77   40   41 1    
    78   40   42 1    
    79   40  106 1    
    80   41  107 1    
    81   41  108 1    
    82   41  109 1    
    83   42   43 2    
    84   42   44 am   BACKBONE|DICT|INTERRES
    85   44   45 1    
    86   44  110 1    
    87   45   46 1    
    88   45   47 1    
    89   45  111 1    
    90   46  112 1    
    91   46  113 1    
    92   46  114 1    
    93   47   48 2    
    94   47   49 am   BACKBONE|DICT|INTERRES
    95   49   50 1    
    96   49  115 1    
    97   50   51 1    
    98   50   52 1    
    99   50  116 1    
   100   51  117 1    
   101   51  118 1    
   102   51  119 1    
   103   52   53 2    
   104   52   54 am   BACKBONE|DICT|INTERRES
   105   54   55 1    
   106   54  120 1    
   107   55   56 1    
   108   55   57 1    
   109   55  121 1    
   110   56  122 1    
   111   56  123 1    
   112   56  124 1    
   113   57   58 2    
   114   57   59 am   BACKBONE|DICT|INTERRES
   115   59   60 1    
   116   59  125 1    
   117   60   61 1    
   118   60   62 1    
   119   60  126 1    
   120   61  127 1    
   121   61  128 1    
   122   61  129 1    
   123   62   63 2    
   124   62   64 am   BACKBONE|DICT|INTERRES
   125   64   65 1    
   126   64  130 1    
   127   65   66 1    
   128   65   69 1    
   129   65  131 1    
   130   66   67 am   BACKBONE|DICT|INTERRES
   131   66   68 2    
   132   67  132 1    
   133   67  133 1    
   134   69   70 1    
   135   69  134 1    
   136   69  135 1    
   137   70   71 1    
   138   71  136 1    
   139   71  137 1    
@<TRIPOS>SUBSTRUCTURE
     1 UNK         1 GROUP             0       ****    0 ROOT    
