@<TRIPOS>MOLECULE
3R137
137   139    1
SMALL
USER_CHARGES


@<TRIPOS>ATOM
      1 CA         25.4081   -6.3300    1.3810 C.3       0 UNK        -0.2020 
      2 C          26.0245   -5.1929    0.5806 C.2       0 UNK         0.4855 
      3 O          26.4875   -4.2114    1.1639 O.2       0 UNK        -0.5197 
      4 N          26.0308   -5.3092   -0.7531 N.am      1 UNK        -0.4892 
      5 CA         26.5800   -4.3228   -1.6917 C.3       1 UNK         0.0835 
      6 C6         27.0113   -4.9829   -3.0299 C.3       12 UNK        -0.0855 
      7 S7         28.2738   -6.2867   -2.8024 S.3       12 UNK        -0.2931 
      8 C8         29.4400   -5.9518   -4.1757 C.3       12 UNK         0.0378 
      9 C9         30.3080   -4.6950   -4.0493 C.ar      12 UNK        -0.0802 
     10 C10        31.2426   -4.4250   -5.0559 C.ar      12 UNK        -0.0944 
     11 C11        32.0466   -3.2815   -4.9992 C.ar      12 UNK        -0.0787 
     12 C12        31.9001   -2.3846   -3.9385 C.ar      12 UNK        -0.0862 
     13 C13        30.9659   -2.6338   -2.9330 C.ar      12 UNK        -0.0733 
     14 C14        30.1992   -3.7992   -2.9788 C.ar      12 UNK        -0.0832 
     15 C15        30.7509   -1.6411   -1.8045 C.3       12 UNK         0.0240 
     16 S16        29.1521   -0.7938   -1.9984 S.3       12 UNK        -0.2522 
     17 C17        29.5467    0.5062   -3.2189 C.3       12 UNK        -0.0967 
     18 CA         29.2845    0.1226   -4.7008 C.3       5 UNK         0.0660 
     19 N          27.9506   -0.4570   -4.9027 N.am      5 UNK        -0.4015 
     20 C          27.4771   -0.9508   -6.0575 C.2       4 UNK         0.4946 
     21 O          28.1470   -1.0685   -7.0818 O.2       4 UNK        -0.5353 
     22 CA         25.9777   -1.2910   -6.1271 C.3       4 UNK         0.0277 
     23 CB         25.7546   -2.8083   -6.2034 C.3       4 UNK        -0.1981 
     24 N          25.1616   -0.7045   -5.0550 N.am      4 UNK        -0.4209 
     25 C          24.9860    0.6156   -4.8746 C.2       3 UNK         0.4942 
     26 O          25.5862    1.4695   -5.5297 O.2       3 UNK        -0.5208 
     27 CA         23.9961    1.0759   -3.7920 C.3       3 UNK         0.0250 
     28 CB         22.6275    1.3793   -4.4219 C.3       3 UNK        -0.1990 
     29 N          23.8263    0.1156   -2.7005 N.am      3 UNK        -0.4232 
     30 C          24.7680   -0.1731   -1.7927 C.2       2 UNK         0.4993 
     31 O          25.8769    0.3619   -1.7730 O.2       2 UNK        -0.5286 
     32 CA         24.4351   -1.2438   -0.7352 C.3       2 UNK         0.0209 
     33 CB         22.9653   -1.7249   -0.7530 C.3       2 UNK        -0.1931 
     34 N          25.3440   -2.3919   -0.8236 N.am      2 UNK        -0.4546 
     35 C          25.5819   -3.1610   -1.8960 C.2       1 UNK         0.5154 
     36 O          25.0260   -3.0023   -2.9851 O.2       1 UNK        -0.5181 
     37 C          29.5584    1.3547   -5.5986 C.2       5 UNK         0.5014 
     38 O          30.7272    1.6961   -5.7970 O.2       5 UNK        -0.5248 
     39 N          28.4938    2.0121   -6.0868 N.am      6 UNK        -0.4434 
     40 CA         28.5535    3.1306   -7.0260 C.3       6 UNK         0.0363 
     41 CB         28.2002    4.4340   -6.2918 C.3       6 UNK        -0.1936 
     42 C          27.6308    2.9251   -8.2388 C.2       6 UNK         0.5081 
     43 O          27.9827    3.3658   -9.3331 O.2       6 UNK        -0.5248 
     44 N          26.4599    2.2993   -8.0409 N.am      7 UNK        -0.4718 
     45 CA         25.4199    2.1622   -9.0654 C.3       7 UNK         0.0273 
     46 CB         24.0814    1.8006   -8.4004 C.3       7 UNK        -0.1935 
     47 C          25.7552    1.1572  -10.1788 C.2       7 UNK         0.5018 
     48 O          25.3559    1.3876  -11.3211 O.2       7 UNK        -0.5186 
     49 N          26.4603    0.0662   -9.8439 N.am      8 UNK        -0.4240 
     50 CA         26.8982   -0.9370  -10.8217 C.3       8 UNK         0.0235 
     51 CB         27.1343   -2.2880  -10.1265 C.3       8 UNK        -0.2000 
     52 C          28.1593   -0.4662  -11.5610 C.2       8 UNK         0.4941 
     53 O          28.2293   -0.5676  -12.7863 O.2       8 UNK        -0.5273 
     54 N          29.1100    0.0697  -10.7930 N.am      9 UNK        -0.4262 
     55 CA         30.3486    0.7080  -11.2148 C.3       9 UNK         0.0264 
     56 CB         31.3639   -0.3434  -11.7025 C.3       9 UNK        -0.1955 
     57 C          30.8797    1.4437   -9.9824 C.2       9 UNK         0.5031 
     58 O          30.5485    1.0482   -8.8626 O.2       9 UNK        -0.5390 
     59 N          31.7228    2.4630  -10.1831 N.am      10 UNK        -0.4204 
     60 CA         32.3616    3.2415   -9.1130 C.3       10 UNK         0.0237 
     61 CB         32.7667    4.6192   -9.6709 C.3       10 UNK        -0.1985 
     62 C          33.5407    2.4883   -8.4604 C.2       10 UNK         0.4970 
     63 O          34.6447    3.0298   -8.3734 O.2       10 UNK        -0.4914 
     64 N          33.2954    1.2402   -8.0502 N.am      11 UNK        -0.4285 
     65 CA         34.2846    0.3289   -7.4657 C.3       11 UNK         0.1007 
     66 C          34.4556    0.4719   -5.9263 C.2       11 UNK         0.5703 
     67 N          33.5397    1.1103   -5.2064 N.am      11 UNK        -0.7361 
     68 O          35.4525    0.0085   -5.3778 O.2       11 UNK        -0.4986 
     69 C69        34.0318   -1.1340   -7.9175 C.3       12 UNK        -0.0947 
     70 S70        32.4572   -1.8354   -7.3136 S.3       12 UNK        -0.2240 
     71 C71        33.0838   -3.0071   -6.0728 C.3       12 UNK         0.0194 
     72 H72        25.0467   -7.1326    0.7383 H         1 UNK         0.0906 
     73 H73        26.1456   -6.7496    2.0647 H         1 UNK         0.0906 
     74 H74        24.5681   -5.9619    1.9695 H         1 UNK         0.0906 
     75 H75        25.6292   -6.1320   -1.1804 H         1 UNK         0.3140 
     76 H76        27.4695   -3.8800   -1.2398 H         1 UNK         0.1085 
     77 H77        27.4161   -4.2237   -3.7002 H         1 UNK         0.0836 
     78 H78        26.1526   -5.4194   -3.5438 H         1 UNK         0.0836 
     79 H79        30.1002   -6.8154   -4.2670 H         1 UNK         0.0731 
     80 H80        28.8739   -5.8996   -5.1070 H         1 UNK         0.0731 
     81 H81        31.3468   -5.1089   -5.8876 H         1 UNK         0.1312 
     82 H82        32.5031   -1.4870   -3.9077 H         1 UNK         0.1406 
     83 H83        29.5014   -3.9787   -2.1777 H         1 UNK         0.1631 
     84 H84        31.5619   -0.9133   -1.7519 H         1 UNK         0.0717 
     85 H85        30.7547   -2.1735   -0.8522 H         1 UNK         0.0717 
     86 H86        28.9471    1.3778   -2.9473 H         1 UNK         0.0934 
     87 H87        30.5864    0.8120   -3.0866 H         1 UNK         0.0934 
     88 H88        30.0047   -0.6423   -4.9952 H         1 UNK         0.0739 
     89 H89        27.3273   -0.4059   -4.1089 H         1 UNK         0.3093 
     90 H90        25.6120   -0.8683   -7.0641 H         1 UNK         0.0818 
     91 H91        24.6990   -3.0517   -6.3233 H         1 UNK         0.0819 
     92 H92        26.1167   -3.3143   -5.3123 H         1 UNK         0.0819 
     93 H93        26.2852   -3.2379   -7.0542 H         1 UNK         0.0819 
     94 H94        24.7043   -1.3551   -4.4257 H         1 UNK         0.3041 
     95 H95        24.3886    2.0029   -3.3681 H         1 UNK         0.0784 
     96 H96        22.7208    2.1171   -5.2203 H         1 UNK         0.0793 
     97 H97        22.1739    0.4868   -4.8551 H         1 UNK         0.0793 
     98 H98        21.9333    1.7874   -3.6870 H         1 UNK         0.0793 
     99 H99        22.9470   -0.3791   -2.6560 H         1 UNK         0.3024 
    100 H100       24.6180   -0.7742    0.2328 H         1 UNK         0.1171 
    101 H101       22.7780   -2.4257    0.0608 H         1 UNK         0.0786 
    102 H102       22.2732   -0.8927   -0.6169 H         1 UNK         0.0786 
    103 H103       22.7047   -2.2312   -1.6833 H         1 UNK         0.0786 
    104 H104       25.8333   -2.6397    0.0311 H         1 UNK         0.2977 
    105 H105       27.5674    1.6803   -5.8413 H         1 UNK         0.3127 
    106 H106       29.5651    3.2268   -7.4204 H         1 UNK         0.0770 
    107 H107       27.1986    4.3947   -5.8614 H         1 UNK         0.0814 
    108 H108       28.2328    5.2866   -6.9714 H         1 UNK         0.0814 
    109 H109       28.9048    4.6352   -5.4849 H         1 UNK         0.0814 
    110 H110       26.1953    2.0109   -7.1008 H         1 UNK         0.2983 
    111 H111       25.2978    3.1377   -9.5422 H         1 UNK         0.0947 
    112 H112       23.2782    1.7626   -9.1375 H         1 UNK         0.0806 
    113 H113       23.7974    2.5405   -7.6519 H         1 UNK         0.0806 
    114 H114       24.1186    0.8271   -7.9119 H         1 UNK         0.0806 
    115 H115       26.7889   -0.0361   -8.8936 H         1 UNK         0.3000 
    116 H116       26.1075   -1.0795  -11.5620 H         1 UNK         0.0850 
    117 H117       27.3876   -3.0582  -10.8560 H         1 UNK         0.0810 
    118 H118       26.2425   -2.6237   -9.5973 H         1 UNK         0.0810 
    119 H119       27.9542   -2.2423   -9.4095 H         1 UNK         0.0810 
    120 H120       28.9777    0.1140   -9.7876 H         1 UNK         0.3040 
    121 H121       30.1317    1.4292  -12.0052 H         1 UNK         0.0766 
    122 H122       32.3049    0.1248  -11.9936 H         1 UNK         0.0812 
    123 H123       30.9929   -0.8867  -12.5715 H         1 UNK         0.0812 
    124 H124       31.5898   -1.0730  -10.9232 H         1 UNK         0.0812 
    125 H125       31.9810    2.7026  -11.1298 H         1 UNK         0.3205 
    126 H126       31.6319    3.4141   -8.3210 H         1 UNK         0.0754 
    127 H127       33.5094    4.5316  -10.4649 H         1 UNK         0.0769 
    128 H128       33.1958    5.2478   -8.8893 H         1 UNK         0.0769 
    129 H129       31.9050    5.1524  -10.0732 H         1 UNK         0.0769 
    130 H130       32.3416    0.8934   -8.1162 H         1 UNK         0.2981 
    131 H131       35.2574    0.5997   -7.8807 H         1 UNK         0.0541 
    132 H132       32.6737    1.4332   -5.6275 H         1 UNK         0.3459 
    133 H133       33.6819    1.2141   -4.2156 H         1 UNK         0.3459 
    134 H134       34.0139   -1.1786   -9.0075 H         1 UNK         0.0612 
    135 H135       34.8650   -1.7721   -7.6185 H         1 UNK         0.0612 
    136 H136       33.3832   -3.9310   -6.5697 H         1 UNK         0.0624 
    137 H137       33.9817   -2.6062   -5.5999 H         1 UNK         0.0624 
@<TRIPOS>BOND
     1    1    2 1    
     2    1   72 1    
     3    1   73 1    
     4    1   74 1    
     5    2    3 2    
     6    2    4 am   BACKBONE|DICT|INTERRES
     7    4    5 1    
     8    4   75 1    
     9    5    6 1    
    10    5   35 1    
    11    5   76 1    
    12    6    7 1    
    13    6   77 1    
    14    6   78 1    
    15    7    8 1    
    16    8    9 1    
    17    8   79 1    
    18    8   80 1    
    19    9   10 ar   
    20    9   14 ar   
    21   10   11 ar   
    22   10   81 1    
    23   11   12 ar   
    24   11   71 1    
    25   12   13 ar   
    26   12   82 1    
    27   13   14 ar   
    28   13   15 1    
    29   14   83 1    
    30   15   16 1    
    31   15   84 1    
    32   15   85 1    
    33   16   17 1    
    34   17   18 1    
    35   17   86 1    
    36   17   87 1    
    37   18   19 1    
    38   18   37 1    
    39   18   88 1    
    40   19   20 am   BACKBONE|DICT|INTERRES
    41   19   89 1    
    42   20   21 2    
    43   20   22 1    
    44   22   23 1    
    45   22   24 1    
    46   22   90 1    
    47   23   91 1    
    48   23   92 1    
    49   23   93 1    
    50   24   25 am   BACKBONE|DICT|INTERRES
    51   24   94 1    
    52   25   26 2    
    53   25   27 1    
    54   27   28 1    
    55   27   29 1    
    56   27   95 1    
    57   28   96 1    
    58   28   97 1    
    59   28   98 1    
    60   29   30 am   BACKBONE|DICT|INTERRES
    61   29   99 1    
    62   30   31 2    
    63   30   32 1    
    64   32   33 1    
    65   32   34 1    
    66   32  100 1    
    67   33  101 1    
    68   33  102 1    
    69   33  103 1    
    70   34   35 am   BACKBONE|DICT|INTERRES
    71   34  104 1    
    72   35   36 2    
    73   37   38 2    
    74   37   39 am   BACKBONE|DICT|INTERRES
    75   39   40 1    
    76   39  105 1    
    77   40   41 1    
    78   40   42 1    
    79   40  106 1    
    80   41  107 1    
    81   41  108 1    
    82   41  109 1    
    83   42   43 2    
    84   42   44 am   BACKBONE|DICT|INTERRES
    85   44   45 1    
    86   44  110 1    
    87   45   46 1    
    88   45   47 1    
    89   45  111 1    
    90   46  112 1    
    91   46  113 1    
    92   46  114 1    
    93   47   48 2    
    94   47   49 am   BACKBONE|DICT|INTERRES
    95   49   50 1    
    96   49  115 1    
    97   50   51 1    
    98   50   52 1    
    99   50  116 1    
   100   51  117 1    
   101   51  118 1    
   102   51  119 1    
   103   52   53 2    
   104   52   54 am   BACKBONE|DICT|INTERRES
   105   54   55 1    
   106   54  120 1    
   107   55   56 1    
   108   55   57 1    
   109   55  121 1    
   110   56  122 1    
   111   56  123 1    
   112   56  124 1    
   113   57   58 2    
   114   57   59 am   BACKBONE|DICT|INTERRES
   115   59   60 1    
   116   59  125 1    
   117   60   61 1    
   118   60   62 1    
   119   60  126 1    
   120   61  127 1    
   121   61  128 1    
   122   61  129 1    
   123   62   63 2    
   124   62   64 am   BACKBONE|DICT|INTERRES
   125   64   65 1    
   126   64  130 1    
   127   65   66 1    
   128   65   69 1    
   129   65  131 1    
   130   66   67 am   BACKBONE|DICT|INTERRES
   131   66   68 2    
   132   67  132 1    
   133   67  133 1    
   134   69   70 1    
   135   69  134 1    
   136   69  135 1    
   137   70   71 1    
   138   71  136 1    
   139   71  137 1    
@<TRIPOS>SUBSTRUCTURE
     1 UNK         1 GROUP             0       ****    0 ROOT    
