@<TRIPOS>MOLECULE
3R137
137   139    1
SMALL
USER_CHARGES


@<TRIPOS>ATOM
      1 CA         24.9970   -6.5468    1.2004 C.3       0 UNK        -0.2020 
      2 C          25.7488   -5.2256    1.2577 C.2       0 UNK         0.4855 
      3 O          25.5354   -4.4394    2.1809 O.2       0 UNK        -0.5197 
      4 N          26.6286   -4.9765    0.2787 N.am      1 UNK        -0.4892 
      5 CA         27.4493   -3.7599    0.1700 C.3       1 UNK         0.0835 
      6 C6         28.6036   -3.9306   -0.8470 C.3       12 UNK        -0.0855 
      7 S7         29.6419   -5.3945   -0.4970 S.3       12 UNK        -0.2931 
      8 C8         31.2885   -4.8389   -1.0648 C.3       12 UNK         0.0378 
      9 C9         31.3638   -4.4022   -2.5298 C.ar      12 UNK        -0.0802 
     10 C10        32.3812   -3.5249   -2.9179 C.ar      12 UNK        -0.0944 
     11 C11        32.4796   -3.0801   -4.2397 C.ar      12 UNK        -0.0787 
     12 C12        31.5407   -3.5090   -5.1824 C.ar      12 UNK        -0.0862 
     13 C13        30.5145   -4.3836   -4.8101 C.ar      12 UNK        -0.0733 
     14 C14        30.4515   -4.8488   -3.4945 C.ar      12 UNK        -0.0832 
     15 C15        29.4491   -4.8093   -5.8120 C.3       12 UNK         0.0240 
     16 S16        27.8333   -4.0502   -5.4296 S.3       12 UNK        -0.2522 
     17 C17        28.1864   -2.2877   -5.7318 C.3       12 UNK        -0.0967 
     18 CA         27.2579   -1.6872   -6.8134 C.3       5 UNK         0.0660 
     19 N          25.8951   -1.4568   -6.3266 N.am      5 UNK        -0.4015 
     20 C          24.8588   -1.1265   -7.1153 C.2       4 UNK         0.4946 
     21 O          24.9110   -1.1127   -8.3453 O.2       4 UNK        -0.5353 
     22 CA         23.5494   -0.6958   -6.4261 C.3       4 UNK         0.0277 
     23 CB         22.6158   -1.9033   -6.2449 C.3       4 UNK        -0.1981 
     24 N          23.7520   -0.0423   -5.1305 N.am      4 UNK        -0.4209 
     25 C          24.4884    1.0586   -4.9175 C.2       3 UNK         0.4942 
     26 O          24.9995    1.7182   -5.8210 O.2       3 UNK        -0.5208 
     27 CA         24.7459    1.4748   -3.4566 C.3       3 UNK         0.0250 
     28 CB         23.9439    2.7402   -3.1125 C.3       3 UNK        -0.1990 
     29 N          24.4602    0.4354   -2.4586 N.am      3 UNK        -0.4232 
     30 C          25.0596   -0.7615   -2.3766 C.2       2 UNK         0.4993 
     31 O          25.9191   -1.1573   -3.1699 O.2       2 UNK        -0.5286 
     32 CA         24.5257   -1.6939   -1.2772 C.3       2 UNK         0.0209 
     33 CB         23.2360   -2.3872   -1.7503 C.3       2 UNK        -0.1931 
     34 N          25.4882   -2.7229   -0.8862 N.am      2 UNK        -0.4546 
     35 C          26.6073   -2.5124   -0.1791 C.2       1 UNK         0.5154 
     36 O          26.9676   -1.4031    0.2187 O.2       1 UNK        -0.5181 
     37 C          27.8551   -0.3875   -7.3811 C.2       5 UNK         0.5014 
     38 O          28.2283   -0.3608   -8.5526 O.2       5 UNK        -0.5248 
     39 N          27.8969    0.6702   -6.5562 N.am      6 UNK        -0.4434 
     40 CA         28.4470    1.9854   -6.9036 C.3       6 UNK         0.0363 
     41 CB         28.4221    2.8970   -5.6667 C.3       6 UNK        -0.1936 
     42 C          27.7380    2.6596   -8.0911 C.2       6 UNK         0.5081 
     43 O          28.3944    3.3347   -8.8838 O.2       6 UNK        -0.5248 
     44 N          26.4219    2.4386   -8.2086 N.am      7 UNK        -0.4718 
     45 CA         25.5955    2.8664   -9.3381 C.3       7 UNK         0.0273 
     46 CB         24.1155    2.6283   -8.9995 C.3       7 UNK        -0.1935 
     47 C          25.9615    2.1738  -10.6642 C.2       7 UNK         0.5018 
     48 O          25.7921    2.7868  -11.7192 O.2       7 UNK        -0.5186 
     49 N          26.4520    0.9271  -10.5981 N.am      8 UNK        -0.4240 
     50 CA         26.9520    0.1803  -11.7523 C.3       8 UNK         0.0235 
     51 CB         26.8331   -1.3326  -11.5003 C.3       8 UNK        -0.2000 
     52 C          28.3959    0.5855  -12.0850 C.2       8 UNK         0.4941 
     53 O          28.6730    0.9194  -13.2381 O.2       8 UNK        -0.5273 
     54 N          29.2797    0.5770  -11.0783 N.am      9 UNK        -0.4262 
     55 CA         30.6713    1.0119  -11.1826 C.3       9 UNK         0.0264 
     56 CB         31.5244   -0.0495  -11.9046 C.3       9 UNK        -0.1955 
     57 C          31.2179    1.2818   -9.7775 C.2       9 UNK         0.5031 
     58 O          31.0929    0.4210   -8.9050 O.2       9 UNK        -0.5390 
     59 N          31.8358    2.4538   -9.5848 N.am      10 UNK        -0.4204 
     60 CA         32.4658    2.8591   -8.3256 C.3       10 UNK         0.0237 
     61 CB         32.8708    4.3393   -8.4157 C.3       10 UNK        -0.1985 
     62 C          33.6833    1.9839   -7.9801 C.2       10 UNK         0.4970 
     63 O          34.4155    1.5693   -8.8823 O.2       10 UNK        -0.4914 
     64 N          33.8842    1.7454   -6.6794 N.am      11 UNK        -0.4285 
     65 CA         34.9672    0.9077   -6.1376 C.3       11 UNK         0.1007 
     66 C          36.3939    1.5232   -6.2475 C.2       11 UNK         0.5703 
     67 N          36.5467    2.8074   -6.5495 N.am      11 UNK        -0.7361 
     68 O          37.3818    0.8171   -6.0595 O.2       11 UNK        -0.4986 
     69 C69        34.6737    0.4644   -4.6798 C.3       12 UNK        -0.0947 
     70 S70        33.0760   -0.3973   -4.4871 S.3       12 UNK        -0.2240 
     71 C71        33.5989   -2.1318   -4.6402 C.3       12 UNK         0.0194 
     72 H72        25.1941   -7.1296    2.0999 H         1 UNK         0.0906 
     73 H73        23.9242   -6.3656    1.1401 H         1 UNK         0.0906 
     74 H74        25.2889   -7.1460    0.3381 H         1 UNK         0.0906 
     75 H75        26.7937   -5.6746   -0.4332 H         1 UNK         0.3140 
     76 H76        27.8924   -3.5748    1.1513 H         1 UNK         0.1085 
     77 H77        28.2091   -4.0217   -1.8612 H         1 UNK         0.0836 
     78 H78        29.2370   -3.0408   -0.8470 H         1 UNK         0.0836 
     79 H79        31.6101   -4.0199   -0.4193 H         1 UNK         0.0731 
     80 H80        31.9997   -5.6511   -0.9096 H         1 UNK         0.0731 
     81 H81        33.0990   -3.1796   -2.1859 H         1 UNK         0.1312 
     82 H82        31.6021   -3.1482   -6.2003 H         1 UNK         0.1406 
     83 H83        29.6607   -5.5342   -3.2244 H         1 UNK         0.1631 
     84 H84        29.3452   -5.8950   -5.7897 H         1 UNK         0.0717 
     85 H85        29.7411   -4.5491   -6.8307 H         1 UNK         0.0717 
     86 H86        28.0972   -1.7470   -4.7876 H         1 UNK         0.0934 
     87 H87        29.2304   -2.1857   -6.0320 H         1 UNK         0.0934 
     88 H88        27.1993   -2.3945   -7.6441 H         1 UNK         0.0739 
     89 H89        25.7715   -1.4518   -5.3201 H         1 UNK         0.3093 
     90 H90        23.0568    0.0251   -7.0814 H         1 UNK         0.0818 
     91 H91        21.6482   -1.6018   -5.8434 H         1 UNK         0.0819 
     92 H92        22.4281   -2.3968   -7.1997 H         1 UNK         0.0819 
     93 H93        23.0432   -2.6480   -5.5720 H         1 UNK         0.0819 
     94 H94        23.3651   -0.5090   -4.3244 H         1 UNK         0.3041 
     95 H95        25.8087    1.7138   -3.3811 H         1 UNK         0.0784 
     96 H96        24.1602    3.5440   -3.8181 H         1 UNK         0.0793 
     97 H97        22.8689    2.5587   -3.1458 H         1 UNK         0.0793 
     98 H98        24.1931    3.1115   -2.1182 H         1 UNK         0.0793 
     99 H99        23.7469    0.6623   -1.7798 H         1 UNK         0.3024 
    100 H100       24.3018   -1.0921   -0.3931 H         1 UNK         0.1171 
    101 H101       22.4632   -1.6597   -2.0018 H         1 UNK         0.0786 
    102 H102       22.8250   -3.0321   -0.9730 H         1 UNK         0.0786 
    103 H103       23.4087   -2.9998   -2.6365 H         1 UNK         0.0786 
    104 H104       25.2910   -3.6669   -1.1831 H         1 UNK         0.2977 
    105 H105       27.5169    0.5730   -5.6265 H         1 UNK         0.3127 
    106 H106       29.4879    1.8319   -7.1919 H         1 UNK         0.0770 
    107 H107       27.4050    3.0689   -5.3122 H         1 UNK         0.0814 
    108 H108       28.8565    3.8716   -5.8939 H         1 UNK         0.0814 
    109 H109       28.9987    2.4704   -4.8458 H         1 UNK         0.0814 
    110 H110       25.9480    1.9514   -7.4510 H         1 UNK         0.2983 
    111 H111       25.7495    3.9389   -9.4747 H         1 UNK         0.0947 
    112 H112       23.4687    2.9841   -9.8025 H         1 UNK         0.0806 
    113 H113       23.8255    3.1556   -8.0903 H         1 UNK         0.0806 
    114 H114       23.9037    1.5686   -8.8543 H         1 UNK         0.0806 
    115 H115       26.5957    0.5045   -9.6881 H         1 UNK         0.3000 
    116 H116       26.3302    0.4166  -12.6188 H         1 UNK         0.0850 
    117 H117       27.1493   -1.8973  -12.3782 H         1 UNK         0.0810 
    118 H118       25.8029   -1.6165  -11.2841 H         1 UNK         0.0810 
    119 H119       27.4492   -1.6622  -10.6641 H         1 UNK         0.0810 
    120 H120       28.9814    0.2840  -10.1465 H         1 UNK         0.3040 
    121 H121       30.7005    1.9411  -11.7559 H         1 UNK         0.0766 
    122 H122       32.5722    0.2517  -11.9417 H         1 UNK         0.0812 
    123 H123       31.1955   -0.1996  -12.9328 H         1 UNK         0.0812 
    124 H124       31.4794   -1.0125  -11.3943 H         1 UNK         0.0812 
    125 H125       31.9282    3.0916  -10.3619 H         1 UNK         0.3205 
    126 H126       31.7224    2.7519   -7.5330 H         1 UNK         0.0754 
    127 H127       33.3082    4.6842   -7.4779 H         1 UNK         0.0769 
    128 H128       32.0084    4.9745   -8.6203 H         1 UNK         0.0769 
    129 H129       33.6082    4.5093   -9.2016 H         1 UNK         0.0769 
    130 H130       33.2439    2.1273   -5.9995 H         1 UNK         0.2981 
    131 H131       34.9960    0.0017   -6.7463 H         1 UNK         0.0541 
    132 H132       35.7446    3.3947   -6.7084 H         1 UNK         0.3459 
    133 H133       37.4763    3.1901   -6.6209 H         1 UNK         0.3459 
    134 H134       34.6618    1.3340   -4.0203 H         1 UNK         0.0612 
    135 H135       35.4690   -0.1823   -4.3045 H         1 UNK         0.0612 
    136 H136       34.4732   -2.3092   -4.0120 H         1 UNK         0.0624 
    137 H137       33.9107   -2.3250   -5.6678 H         1 UNK         0.0624 
@<TRIPOS>BOND
     1    1    2 1    
     2    1   72 1    
     3    1   73 1    
     4    1   74 1    
     5    2    3 2    
     6    2    4 am   BACKBONE|DICT|INTERRES
     7    4    5 1    
     8    4   75 1    
     9    5    6 1    
    10    5   35 1    
    11    5   76 1    
    12    6    7 1    
    13    6   77 1    
    14    6   78 1    
    15    7    8 1    
    16    8    9 1    
    17    8   79 1    
    18    8   80 1    
    19    9   10 ar   
    20    9   14 ar   
    21   10   11 ar   
    22   10   81 1    
    23   11   12 ar   
    24   11   71 1    
    25   12   13 ar   
    26   12   82 1    
    27   13   14 ar   
    28   13   15 1    
    29   14   83 1    
    30   15   16 1    
    31   15   84 1    
    32   15   85 1    
    33   16   17 1    
    34   17   18 1    
    35   17   86 1    
    36   17   87 1    
    37   18   19 1    
    38   18   37 1    
    39   18   88 1    
    40   19   20 am   BACKBONE|DICT|INTERRES
    41   19   89 1    
    42   20   21 2    
    43   20   22 1    
    44   22   23 1    
    45   22   24 1    
    46   22   90 1    
    47   23   91 1    
    48   23   92 1    
    49   23   93 1    
    50   24   25 am   BACKBONE|DICT|INTERRES
    51   24   94 1    
    52   25   26 2    
    53   25   27 1    
    54   27   28 1    
    55   27   29 1    
    56   27   95 1    
    57   28   96 1    
    58   28   97 1    
    59   28   98 1    
    60   29   30 am   BACKBONE|DICT|INTERRES
    61   29   99 1    
    62   30   31 2    
    63   30   32 1    
    64   32   33 1    
    65   32   34 1    
    66   32  100 1    
    67   33  101 1    
    68   33  102 1    
    69   33  103 1    
    70   34   35 am   BACKBONE|DICT|INTERRES
    71   34  104 1    
    72   35   36 2    
    73   37   38 2    
    74   37   39 am   BACKBONE|DICT|INTERRES
    75   39   40 1    
    76   39  105 1    
    77   40   41 1    
    78   40   42 1    
    79   40  106 1    
    80   41  107 1    
    81   41  108 1    
    82   41  109 1    
    83   42   43 2    
    84   42   44 am   BACKBONE|DICT|INTERRES
    85   44   45 1    
    86   44  110 1    
    87   45   46 1    
    88   45   47 1    
    89   45  111 1    
    90   46  112 1    
    91   46  113 1    
    92   46  114 1    
    93   47   48 2    
    94   47   49 am   BACKBONE|DICT|INTERRES
    95   49   50 1    
    96   49  115 1    
    97   50   51 1    
    98   50   52 1    
    99   50  116 1    
   100   51  117 1    
   101   51  118 1    
   102   51  119 1    
   103   52   53 2    
   104   52   54 am   BACKBONE|DICT|INTERRES
   105   54   55 1    
   106   54  120 1    
   107   55   56 1    
   108   55   57 1    
   109   55  121 1    
   110   56  122 1    
   111   56  123 1    
   112   56  124 1    
   113   57   58 2    
   114   57   59 am   BACKBONE|DICT|INTERRES
   115   59   60 1    
   116   59  125 1    
   117   60   61 1    
   118   60   62 1    
   119   60  126 1    
   120   61  127 1    
   121   61  128 1    
   122   61  129 1    
   123   62   63 2    
   124   62   64 am   BACKBONE|DICT|INTERRES
   125   64   65 1    
   126   64  130 1    
   127   65   66 1    
   128   65   69 1    
   129   65  131 1    
   130   66   67 am   BACKBONE|DICT|INTERRES
   131   66   68 2    
   132   67  132 1    
   133   67  133 1    
   134   69   70 1    
   135   69  134 1    
   136   69  135 1    
   137   70   71 1    
   138   71  136 1    
   139   71  137 1    
@<TRIPOS>SUBSTRUCTURE
     1 UNK         1 GROUP             0       ****    0 ROOT    
