@<TRIPOS>MOLECULE
3R137
137   139    1
SMALL
USER_CHARGES


@<TRIPOS>ATOM
      1 CA         24.5973   -6.0563   -1.9634 C.3       0 UNK        -0.2020 
      2 C          25.1300   -4.9295   -1.0911 C.2       0 UNK         0.4855 
      3 O          24.3882   -4.3835   -0.2736 O.2       0 UNK        -0.5197 
      4 N          26.4136   -4.5875   -1.2530 N.am      1 UNK        -0.4892 
      5 CA         27.0941   -3.4910   -0.5535 C.3       1 UNK         0.0835 
      6 C6         28.6332   -3.5811   -0.7057 C.3       12 UNK        -0.0855 
      7 S7         29.2892   -5.1963   -0.1458 S.3       12 UNK        -0.2931 
      8 C8         30.9567   -5.2468   -0.8902 C.3       12 UNK         0.0378 
      9 C9         30.9472   -4.9172   -2.3768 C.ar      12 UNK        -0.0802 
     10 C10        31.6798   -3.8268   -2.8541 C.ar      12 UNK        -0.0944 
     11 C11        31.6127   -3.4619   -4.2009 C.ar      12 UNK        -0.0787 
     12 C12        30.8023   -4.1926   -5.0731 C.ar      12 UNK        -0.0862 
     13 C13        30.0609   -5.2825   -4.6062 C.ar      12 UNK        -0.0733 
     14 C14        30.1616   -5.6595   -3.2639 C.ar      12 UNK        -0.0832 
     15 C15        29.0978   -6.0063   -5.5370 C.3       12 UNK         0.0240 
     16 S16        27.3597   -5.8570   -4.9922 S.3       12 UNK        -0.2522 
     17 C17        27.1526   -4.0547   -4.7722 C.3       12 UNK        -0.0967 
     18 CA         26.3668   -3.3511   -5.9004 C.3       5 UNK         0.0660 
     19 N          25.8579   -2.0617   -5.4203 N.am      5 UNK        -0.4015 
     20 C          25.0935   -1.2102   -6.1159 C.2       4 UNK         0.4946 
     21 O          24.6047   -1.4750   -7.2144 O.2       4 UNK        -0.5353 
     22 CA         24.8741    0.1909   -5.5162 C.3       4 UNK         0.0277 
     23 CB         23.4896    0.2775   -4.8553 C.3       4 UNK        -0.1981 
     24 N          25.8898    0.6186   -4.5480 N.am      4 UNK        -0.4209 
     25 C          27.2130    0.7144   -4.7371 C.2       3 UNK         0.4942 
     26 O          27.7712    0.4093   -5.7913 O.2       3 UNK        -0.5208 
     27 CA         28.0686    1.1934   -3.5454 C.3       3 UNK         0.0250 
     28 CB         28.2396    2.7241   -3.5709 C.3       3 UNK        -0.1990 
     29 N          27.6179    0.7218   -2.2229 N.am      3 UNK        -0.4232 
     30 C          26.4792    1.0092   -1.5722 C.2       2 UNK         0.4993 
     31 O          25.6310    1.7908   -2.0059 O.2       2 UNK        -0.5286 
     32 CA         26.2163    0.2680   -0.2438 C.3       2 UNK         0.0209 
     33 CB         24.7140    0.2377    0.1120 C.3       2 UNK        -0.1931 
     34 N          26.7631   -1.0971   -0.1610 N.am      2 UNK        -0.4546 
     35 C          26.5737   -2.1120   -1.0203 C.2       1 UNK         0.5154 
     36 O          26.0481   -1.9894   -2.1320 O.2       1 UNK        -0.5181 
     37 C          27.2069   -3.2291   -7.1966 C.2       5 UNK         0.5014 
     38 O          27.2082   -4.1623   -8.0012 O.2       5 UNK        -0.5248 
     39 N          27.8708   -2.0822   -7.4011 N.am      6 UNK        -0.4434 
     40 CA         28.6009   -1.7420   -8.6196 C.3       6 UNK         0.0363 
     41 CB         30.1123   -1.9303   -8.3865 C.3       6 UNK        -0.1936 
     42 C          28.2323   -0.3130   -9.0395 C.2       6 UNK         0.5081 
     43 O          29.1253    0.5029   -9.2681 O.2       6 UNK        -0.5248 
     44 N          26.9227   -0.0265   -9.1223 N.am      7 UNK        -0.4718 
     45 CA         26.3212    1.3014   -9.3347 C.3       7 UNK         0.0273 
     46 CB         24.7998    1.1497   -9.5035 C.3       7 UNK        -0.1935 
     47 C          26.8782    2.1300  -10.5075 C.2       7 UNK         0.5018 
     48 O          26.8688    3.3582  -10.4265 O.2       7 UNK        -0.5186 
     49 N          27.3601    1.4571  -11.5618 N.am      8 UNK        -0.4240 
     50 CA         28.0100    2.0762  -12.7210 C.3       8 UNK         0.0235 
     51 CB         28.2084    1.0164  -13.8166 C.3       8 UNK        -0.2000 
     52 C          29.3498    2.7597  -12.3858 C.2       8 UNK         0.4941 
     53 O          29.7030    3.7367  -13.0475 O.2       8 UNK        -0.5273 
     54 N          30.0622    2.2410  -11.3769 N.am      9 UNK        -0.4262 
     55 CA         31.3267    2.7818  -10.8728 C.3       9 UNK         0.0264 
     56 CB         32.3697    1.6514  -10.8476 C.3       9 UNK        -0.1955 
     57 C          31.1848    3.3871   -9.4664 C.2       9 UNK         0.5031 
     58 O          32.0550    4.1594   -9.0635 O.2       9 UNK        -0.5390 
     59 N          30.1432    2.9834   -8.7217 N.am      10 UNK        -0.4204 
     60 CA         29.8920    3.2590   -7.3012 C.3       10 UNK         0.0237 
     61 CB         29.5570    4.7488   -7.0798 C.3       10 UNK        -0.1985 
     62 C          31.0384    2.7495   -6.4036 C.2       10 UNK         0.4970 
     63 O          31.3948    3.4075   -5.4253 O.2       10 UNK        -0.4914 
     64 N          31.6177    1.6055   -6.7963 N.am      11 UNK        -0.4285 
     65 CA         32.8476    1.0077   -6.2496 C.3       11 UNK         0.1007 
     66 C          34.1432    1.8502   -6.4770 C.2       11 UNK         0.5703 
     67 N          34.1406    2.8889   -7.3055 N.am      11 UNK        -0.7361 
     68 O          35.1925    1.5325   -5.9223 O.2       11 UNK        -0.4986 
     69 C69        32.6970    0.5270   -4.7776 C.3       12 UNK        -0.0947 
     70 S70        31.4032   -0.7413   -4.5731 S.3       12 UNK        -0.2240 
     71 C71        32.3955   -2.2598   -4.7000 C.3       12 UNK         0.0194 
     72 H72        24.1797   -6.8479   -1.3425 H         1 UNK         0.0906 
     73 H73        23.8098   -5.6830   -2.6164 H         1 UNK         0.0906 
     74 H74        25.3762   -6.4924   -2.5878 H         1 UNK         0.0906 
     75 H75        26.9797   -5.0842   -1.9252 H         1 UNK         0.3140 
     76 H76        26.8513   -3.5883    0.5072 H         1 UNK         0.1085 
     77 H77        28.9052   -3.4091   -1.7481 H         1 UNK         0.0836 
     78 H78        29.1299   -2.7997   -0.1277 H         1 UNK         0.0836 
     79 H79        31.6011   -4.5562   -0.3439 H         1 UNK         0.0731 
     80 H80        31.3804   -6.2416   -0.7470 H         1 UNK         0.0731 
     81 H81        32.2842   -3.2426   -2.1734 H         1 UNK         0.1312 
     82 H82        30.7259   -3.8913   -6.1076 H         1 UNK         0.1406 
     83 H83        29.5770   -6.4917   -2.8953 H         1 UNK         0.1631 
     84 H84        29.1811   -5.6253   -6.5559 H         1 UNK         0.0717 
     85 H85        29.3663   -7.0623   -5.5812 H         1 UNK         0.0717 
     86 H86        26.5967   -3.9436   -3.8432 H         1 UNK         0.0934 
     87 H87        28.1041   -3.5543   -4.5921 H         1 UNK         0.0934 
     88 H88        25.4910   -3.9571   -6.1409 H         1 UNK         0.0739 
     89 H89        26.1599   -1.7745   -4.4977 H         1 UNK         0.3093 
     90 H90        24.9076    0.9034   -6.3415 H         1 UNK         0.0818 
     91 H91        23.2728    1.2915   -4.5186 H         1 UNK         0.0819 
     92 H92        22.7020   -0.0057   -5.5552 H         1 UNK         0.0819 
     93 H93        23.4153   -0.3854   -3.9919 H         1 UNK         0.0819 
     94 H94        25.5485    0.9343   -3.6426 H         1 UNK         0.3041 
     95 H95        29.0573    0.7578   -3.6881 H         1 UNK         0.0784 
     96 H96        28.6559    3.0511   -4.5227 H         1 UNK         0.0793 
     97 H97        27.2926    3.2475   -3.4396 H         1 UNK         0.0793 
     98 H98        28.9213    3.0594   -2.7895 H         1 UNK         0.0793 
     99 H99        28.2230    0.0390   -1.7891 H         1 UNK         0.3024 
    100 H100       26.7249    0.8541    0.5236 H         1 UNK         0.1171 
    101 H101       24.5422   -0.2509    1.0711 H         1 UNK         0.0786 
    102 H102       24.3036    1.2455    0.1890 H         1 UNK         0.0786 
    103 H103       24.1343   -0.2949   -0.6431 H         1 UNK         0.0786 
    104 H104       27.2556   -1.3002    0.6986 H         1 UNK         0.2977 
    105 H105       27.7930   -1.3270   -6.7222 H         1 UNK         0.3127 
    106 H106       28.2974   -2.3894   -9.4447 H         1 UNK         0.0770 
    107 H107       30.4653   -1.3401   -7.5402 H         1 UNK         0.0814 
    108 H108       30.6881   -1.6293   -9.2626 H         1 UNK         0.0814 
    109 H109       30.3502   -2.9755   -8.1943 H         1 UNK         0.0814 
    110 H110       26.2710   -0.7682   -8.9000 H         1 UNK         0.2983 
    111 H111       26.5098    1.8770   -8.4259 H         1 UNK         0.0947 
    112 H112       24.3232    2.1186   -9.6604 H         1 UNK         0.0806 
    113 H113       24.3341    0.7096   -8.6242 H         1 UNK         0.0806 
    114 H114       24.5514    0.5228  -10.3606 H         1 UNK         0.0806 
    115 H115       27.3189    0.4486  -11.5401 H         1 UNK         0.3000 
    116 H116       27.3391    2.8465  -13.1072 H         1 UNK         0.0850 
    117 H117       28.6677    1.4545  -14.7040 H         1 UNK         0.0810 
    118 H118       27.2578    0.5829  -14.1272 H         1 UNK         0.0810 
    119 H119       28.8559    0.2050  -13.4820 H         1 UNK         0.0810 
    120 H120       29.6807    1.4454  -10.8735 H         1 UNK         0.3040 
    121 H121       31.6952    3.5727  -11.5291 H         1 UNK         0.0766 
    122 H122       32.5403    1.2504  -11.8467 H         1 UNK         0.0812 
    123 H123       32.0579    0.8268  -10.2053 H         1 UNK         0.0812 
    124 H124       33.3301    2.0109  -10.4755 H         1 UNK         0.0812 
    125 H125       29.5583    2.2469   -9.1100 H         1 UNK         0.3205 
    126 H126       29.0112    2.6749   -7.0297 H         1 UNK         0.0754 
    127 H127       29.2544    4.9355   -6.0490 H         1 UNK         0.0769 
    128 H128       28.7349    5.0671   -7.7209 H         1 UNK         0.0769 
    129 H129       30.4130    5.3913   -7.2880 H         1 UNK         0.0769 
    130 H130       31.2330    1.1400   -7.6050 H         1 UNK         0.2981 
    131 H131       33.0131    0.1165   -6.8554 H         1 UNK         0.0541 
    132 H132       34.9970    3.4016   -7.4407 H         1 UNK         0.3459 
    133 H133       33.2986    3.1951   -7.7786 H         1 UNK         0.3459 
    134 H134       33.6365    0.1207   -4.4005 H         1 UNK         0.0612 
    135 H135       32.4589    1.3653   -4.1221 H         1 UNK         0.0612 
    136 H136       33.3120   -2.1555   -4.1176 H         1 UNK         0.0624 
    137 H137       32.7005   -2.4062   -5.7372 H         1 UNK         0.0624 
@<TRIPOS>BOND
     1    1    2 1    
     2    1   72 1    
     3    1   73 1    
     4    1   74 1    
     5    2    3 2    
     6    2    4 am   BACKBONE|DICT|INTERRES
     7    4    5 1    
     8    4   75 1    
     9    5    6 1    
    10    5   35 1    
    11    5   76 1    
    12    6    7 1    
    13    6   77 1    
    14    6   78 1    
    15    7    8 1    
    16    8    9 1    
    17    8   79 1    
    18    8   80 1    
    19    9   10 ar   
    20    9   14 ar   
    21   10   11 ar   
    22   10   81 1    
    23   11   12 ar   
    24   11   71 1    
    25   12   13 ar   
    26   12   82 1    
    27   13   14 ar   
    28   13   15 1    
    29   14   83 1    
    30   15   16 1    
    31   15   84 1    
    32   15   85 1    
    33   16   17 1    
    34   17   18 1    
    35   17   86 1    
    36   17   87 1    
    37   18   19 1    
    38   18   37 1    
    39   18   88 1    
    40   19   20 am   BACKBONE|DICT|INTERRES
    41   19   89 1    
    42   20   21 2    
    43   20   22 1    
    44   22   23 1    
    45   22   24 1    
    46   22   90 1    
    47   23   91 1    
    48   23   92 1    
    49   23   93 1    
    50   24   25 am   BACKBONE|DICT|INTERRES
    51   24   94 1    
    52   25   26 2    
    53   25   27 1    
    54   27   28 1    
    55   27   29 1    
    56   27   95 1    
    57   28   96 1    
    58   28   97 1    
    59   28   98 1    
    60   29   30 am   BACKBONE|DICT|INTERRES
    61   29   99 1    
    62   30   31 2    
    63   30   32 1    
    64   32   33 1    
    65   32   34 1    
    66   32  100 1    
    67   33  101 1    
    68   33  102 1    
    69   33  103 1    
    70   34   35 am   BACKBONE|DICT|INTERRES
    71   34  104 1    
    72   35   36 2    
    73   37   38 2    
    74   37   39 am   BACKBONE|DICT|INTERRES
    75   39   40 1    
    76   39  105 1    
    77   40   41 1    
    78   40   42 1    
    79   40  106 1    
    80   41  107 1    
    81   41  108 1    
    82   41  109 1    
    83   42   43 2    
    84   42   44 am   BACKBONE|DICT|INTERRES
    85   44   45 1    
    86   44  110 1    
    87   45   46 1    
    88   45   47 1    
    89   45  111 1    
    90   46  112 1    
    91   46  113 1    
    92   46  114 1    
    93   47   48 2    
    94   47   49 am   BACKBONE|DICT|INTERRES
    95   49   50 1    
    96   49  115 1    
    97   50   51 1    
    98   50   52 1    
    99   50  116 1    
   100   51  117 1    
   101   51  118 1    
   102   51  119 1    
   103   52   53 2    
   104   52   54 am   BACKBONE|DICT|INTERRES
   105   54   55 1    
   106   54  120 1    
   107   55   56 1    
   108   55   57 1    
   109   55  121 1    
   110   56  122 1    
   111   56  123 1    
   112   56  124 1    
   113   57   58 2    
   114   57   59 am   BACKBONE|DICT|INTERRES
   115   59   60 1    
   116   59  125 1    
   117   60   61 1    
   118   60   62 1    
   119   60  126 1    
   120   61  127 1    
   121   61  128 1    
   122   61  129 1    
   123   62   63 2    
   124   62   64 am   BACKBONE|DICT|INTERRES
   125   64   65 1    
   126   64  130 1    
   127   65   66 1    
   128   65   69 1    
   129   65  131 1    
   130   66   67 am   BACKBONE|DICT|INTERRES
   131   66   68 2    
   132   67  132 1    
   133   67  133 1    
   134   69   70 1    
   135   69  134 1    
   136   69  135 1    
   137   70   71 1    
   138   71  136 1    
   139   71  137 1    
@<TRIPOS>SUBSTRUCTURE
     1 UNK         1 GROUP             0       ****    0 ROOT    
