@<TRIPOS>MOLECULE
3R137
137   139    1
SMALL
USER_CHARGES


@<TRIPOS>ATOM
      1 CA         23.8540   -4.4368   -0.6915 C.3       0 UNK        -0.2020 
      2 C          25.0139   -3.4686   -0.5117 C.2       0 UNK         0.4855 
      3 O          24.9780   -2.6317    0.3905 O.2       0 UNK        -0.5197 
      4 N          26.0469   -3.5810   -1.3568 N.am      1 UNK        -0.4892 
      5 CA         27.2083   -2.6907   -1.3657 C.3       1 UNK         0.0835 
      6 C6         28.4420   -3.3812   -1.9935 C.3       12 UNK        -0.0855 
      7 S7         30.0085   -2.5962   -1.4887 S.3       12 UNK        -0.2931 
      8 C8         31.2299   -3.7887   -2.1238 C.3       12 UNK         0.0378 
      9 C9         31.2636   -3.8207   -3.6461 C.ar      12 UNK        -0.0802 
     10 C10        32.1104   -2.9607   -4.3536 C.ar      12 UNK        -0.0944 
     11 C11        32.1644   -2.9991   -5.7550 C.ar      12 UNK        -0.0787 
     12 C12        31.3494   -3.9125   -6.4324 C.ar      12 UNK        -0.0862 
     13 C13        30.4830   -4.7615   -5.7407 C.ar      12 UNK        -0.0733 
     14 C14        30.4571   -4.7224   -4.3455 C.ar      12 UNK        -0.0832 
     15 C15        29.5861   -5.7291   -6.5020 C.3       12 UNK         0.0240 
     16 S16        28.3392   -4.8742   -7.5222 S.3       12 UNK        -0.2522 
     17 C17        27.2895   -4.0687   -6.2630 C.3       12 UNK        -0.0967 
     18 CA         26.7206   -2.7060   -6.7372 C.3       5 UNK         0.0660 
     19 N          25.5978   -2.2580   -5.9101 N.am      5 UNK        -0.4015 
     20 C          24.3203   -2.5756   -6.1605 C.2       4 UNK         0.4946 
     21 O          23.9573   -3.2616   -7.1175 O.2       4 UNK        -0.5353 
     22 CA         23.2559   -2.0635   -5.1773 C.3       4 UNK         0.0277 
     23 CB         23.1243   -3.0260   -3.9872 C.3       4 UNK        -0.1981 
     24 N          23.5071   -0.7135   -4.6749 N.am      4 UNK        -0.4209 
     25 C          23.4815    0.4147   -5.3944 C.2       3 UNK         0.4942 
     26 O          23.2803    0.4471   -6.6082 O.2       3 UNK        -0.5208 
     27 CA         23.7233    1.7380   -4.6400 C.3       3 UNK         0.0250 
     28 CB         22.4170    2.2655   -4.0140 C.3       3 UNK        -0.1990 
     29 N          24.8190    1.6906   -3.6569 N.am      3 UNK        -0.4232 
     30 C          24.8917    0.9755   -2.5252 C.2       2 UNK         0.4993 
     31 O          23.9773    0.2716   -2.0893 O.2       2 UNK        -0.5286 
     32 CA         26.2306    1.0223   -1.7735 C.3       2 UNK         0.0209 
     33 CB         26.1363    1.9685   -0.5659 C.3       2 UNK        -0.1931 
     34 N          26.6484   -0.3059   -1.3143 N.am      2 UNK        -0.4546 
     35 C          26.8373   -1.3826   -2.0914 C.2       1 UNK         0.5154 
     36 O          26.7152   -1.3831   -3.3232 O.2       1 UNK        -0.5181 
     37 C          27.7968   -1.6152   -6.8450 C.2       5 UNK         0.5014 
     38 O          28.2087   -1.2888   -7.9598 O.2       5 UNK        -0.5248 
     39 N          28.2213   -1.0439   -5.7076 N.am      6 UNK        -0.4434 
     40 CA         29.3573   -0.1183   -5.6232 C.3       6 UNK         0.0363 
     41 CB         29.6507    0.2069   -4.1531 C.3       6 UNK        -0.1936 
     42 C          29.2043    1.1785   -6.4320 C.2       6 UNK         0.5081 
     43 O          30.2147    1.7257   -6.8731 O.2       6 UNK        -0.5248 
     44 N          27.9632    1.6410   -6.6276 N.am      7 UNK        -0.4718 
     45 CA         27.6526    2.8151   -7.4475 C.3       7 UNK         0.0273 
     46 CB         26.2400    3.3154   -7.1101 C.3       7 UNK        -0.1935 
     47 C          27.7758    2.5418   -8.9565 C.2       7 UNK         0.5018 
     48 O          28.1315    3.4523   -9.7045 O.2       7 UNK        -0.5186 
     49 N          27.4804    1.3037   -9.3754 N.am      8 UNK        -0.4240 
     50 CA         27.5544    0.8613  -10.7685 C.3       8 UNK         0.0235 
     51 CB         26.5512   -0.2819  -10.9975 C.3       8 UNK        -0.2000 
     52 C          28.9763    0.4186  -11.1374 C.2       8 UNK         0.4941 
     53 O          29.4694    0.7790  -12.2061 O.2       8 UNK        -0.5273 
     54 N          29.6117   -0.3424  -10.2371 N.am      9 UNK        -0.4262 
     55 CA         30.9667   -0.8757  -10.3901 C.3       9 UNK         0.0264 
     56 CB         31.0697   -2.1615   -9.5599 C.3       9 UNK        -0.1955 
     57 C          32.0812    0.1276  -10.0284 C.2       9 UNK         0.5031 
     58 O          33.2543   -0.1963  -10.2175 O.2       9 UNK        -0.5390 
     59 N          31.7043    1.3178   -9.5390 N.am      10 UNK        -0.4204 
     60 CA         32.5567    2.4687   -9.2181 C.3       10 UNK         0.0237 
     61 CB         33.2602    3.0094  -10.4825 C.3       10 UNK        -0.1985 
     62 C          33.5215    2.2296   -8.0394 C.2       10 UNK         0.4970 
     63 O          34.6571    2.7087   -8.0696 O.2       10 UNK        -0.4914 
     64 N          33.0318    1.5425   -7.0012 N.am      11 UNK        -0.4285 
     65 CA         33.6472    1.5243   -5.6635 C.3       11 UNK         0.1007 
     66 C          33.1465    2.6981   -4.7738 C.2       11 UNK         0.5703 
     67 N          32.0049    3.3141   -5.0645 N.am      11 UNK        -0.7361 
     68 O          33.8142    3.0637   -3.8096 O.2       11 UNK        -0.4986 
     69 C69        33.4448    0.1699   -4.9371 C.3       12 UNK        -0.0947 
     70 S70        34.3813   -1.1927   -5.7027 S.3       12 UNK        -0.2240 
     71 C71        33.0606   -2.0795   -6.5927 C.3       12 UNK         0.0194 
     72 H72        23.7207   -5.0336    0.2104 H         1 UNK         0.0906 
     73 H73        22.9317   -3.8860   -0.8744 H         1 UNK         0.0906 
     74 H74        24.0141   -5.1172   -1.5277 H         1 UNK         0.0906 
     75 H75        26.0187   -4.2751   -2.0899 H         1 UNK         0.3140 
     76 H76        27.4566   -2.4576   -0.3272 H         1 UNK         0.1085 
     77 H77        28.3750   -3.4014   -3.0813 H         1 UNK         0.0836 
     78 H78        28.4849   -4.4231   -1.6715 H         1 UNK         0.0836 
     79 H79        32.2149   -3.5190   -1.7397 H         1 UNK         0.0731 
     80 H80        31.0134   -4.7813   -1.7257 H         1 UNK         0.0731 
     81 H81        32.7247   -2.2686   -3.7972 H         1 UNK         0.1312 
     82 H82        31.3793   -3.9670   -7.5107 H         1 UNK         0.1406 
     83 H83        29.8035   -5.3902   -3.8012 H         1 UNK         0.1631 
     84 H84        29.0785   -6.4133   -5.8202 H         1 UNK         0.0717 
     85 H85        30.2053   -6.3490   -7.1518 H         1 UNK         0.0717 
     86 H86        26.4714   -4.7572   -6.0457 H         1 UNK         0.0934 
     87 H87        27.8357   -3.9530   -5.3271 H         1 UNK         0.0934 
     88 H88        26.3504   -2.8416   -7.7564 H         1 UNK         0.0739 
     89 H89        25.8201   -1.7254   -5.0747 H         1 UNK         0.3093 
     90 H90        22.3015   -2.0439   -5.7078 H         1 UNK         0.0818 
     91 H91        22.3134   -2.7281   -3.3222 H         1 UNK         0.0819 
     92 H92        22.9112   -4.0415   -4.3242 H         1 UNK         0.0819 
     93 H93        24.0431   -3.0599   -3.4025 H         1 UNK         0.0819 
     94 H94        23.6634   -0.6106   -3.6737 H         1 UNK         0.3041 
     95 H95        24.0298    2.4687   -5.3884 H         1 UNK         0.0784 
     96 H96        21.6495    2.4020   -4.7771 H         1 UNK         0.0793 
     97 H97        22.0108    1.5808   -3.2690 H         1 UNK         0.0793 
     98 H98        22.5701    3.2315   -3.5328 H         1 UNK         0.0793 
     99 H99        25.6298    2.2371   -3.9110 H         1 UNK         0.3024 
    100 H100       27.0012    1.3991   -2.4467 H         1 UNK         0.1171 
    101 H101       25.8471    2.9733   -0.8772 H         1 UNK         0.0786 
    102 H102       27.0935    2.0537   -0.0510 H         1 UNK         0.0786 
    103 H103       25.3946    1.6256    0.1570 H         1 UNK         0.0786 
    104 H104       26.7066   -0.4291   -0.3137 H         1 UNK         0.2977 
    105 H105       27.7991   -1.3147   -4.8226 H         1 UNK         0.3127 
    106 H106       30.2244   -0.6404   -6.0322 H         1 UNK         0.0770 
    107 H107       28.7739    0.6034   -3.6456 H         1 UNK         0.0814 
    108 H108       30.4415    0.9514   -4.0559 H         1 UNK         0.0814 
    109 H109       29.9789   -0.6820   -3.6178 H         1 UNK         0.0814 
    110 H110       27.1902    1.1245   -6.2364 H         1 UNK         0.2983 
    111 H111       28.3625    3.6079   -7.1992 H         1 UNK         0.0947 
    112 H112       25.9923    4.2032   -7.6940 H         1 UNK         0.0806 
    113 H113       26.1579    3.5910   -6.0590 H         1 UNK         0.0806 
    114 H114       25.4821    2.5621   -7.3290 H         1 UNK         0.0806 
    115 H115       27.2691    0.5955   -8.6849 H         1 UNK         0.3000 
    116 H116       27.2778    1.6899  -11.4247 H         1 UNK         0.0850 
    117 H117       26.5786   -0.6219  -12.0336 H         1 UNK         0.0810 
    118 H118       25.5307    0.0403  -10.7898 H         1 UNK         0.0810 
    119 H119       26.7641   -1.1452  -10.3655 H         1 UNK         0.0810 
    120 H120       29.1082   -0.6262   -9.3968 H         1 UNK         0.3040 
    121 H121       31.1205   -1.1438  -11.4375 H         1 UNK         0.0766 
    122 H122       32.0824   -2.5667   -9.5695 H         1 UNK         0.0812 
    123 H123       30.4070   -2.9349   -9.9488 H         1 UNK         0.0812 
    124 H124       30.7853   -1.9794   -8.5248 H         1 UNK         0.0812 
    125 H125       30.7168    1.4535   -9.3722 H         1 UNK         0.3205 
    126 H126       31.8734    3.2479   -8.8767 H         1 UNK         0.0754 
    127 H127       33.7660    3.9534  -10.2759 H         1 UNK         0.0769 
    128 H128       32.5456    3.1957  -11.2844 H         1 UNK         0.0769 
    129 H129       34.0120    2.3142  -10.8573 H         1 UNK         0.0769 
    130 H130       32.0534    1.2766   -7.0419 H         1 UNK         0.2981 
    131 H131       34.7237    1.6723   -5.7682 H         1 UNK         0.0541 
    132 H132       31.4211    2.9874   -5.8242 H         1 UNK         0.3459 
    133 H133       31.6992    4.0801   -4.4863 H         1 UNK         0.3459 
    134 H134       32.3875   -0.0876   -4.8942 H         1 UNK         0.0612 
    135 H135       33.7824    0.2338   -3.9009 H         1 UNK         0.0612 
    136 H136       32.4414   -1.3406   -7.0996 H         1 UNK         0.0624 
    137 H137       33.5377   -2.6712   -7.3753 H         1 UNK         0.0624 
@<TRIPOS>BOND
     1    1    2 1    
     2    1   72 1    
     3    1   73 1    
     4    1   74 1    
     5    2    3 2    
     6    2    4 am   BACKBONE|DICT|INTERRES
     7    4    5 1    
     8    4   75 1    
     9    5    6 1    
    10    5   35 1    
    11    5   76 1    
    12    6    7 1    
    13    6   77 1    
    14    6   78 1    
    15    7    8 1    
    16    8    9 1    
    17    8   79 1    
    18    8   80 1    
    19    9   10 ar   
    20    9   14 ar   
    21   10   11 ar   
    22   10   81 1    
    23   11   12 ar   
    24   11   71 1    
    25   12   13 ar   
    26   12   82 1    
    27   13   14 ar   
    28   13   15 1    
    29   14   83 1    
    30   15   16 1    
    31   15   84 1    
    32   15   85 1    
    33   16   17 1    
    34   17   18 1    
    35   17   86 1    
    36   17   87 1    
    37   18   19 1    
    38   18   37 1    
    39   18   88 1    
    40   19   20 am   BACKBONE|DICT|INTERRES
    41   19   89 1    
    42   20   21 2    
    43   20   22 1    
    44   22   23 1    
    45   22   24 1    
    46   22   90 1    
    47   23   91 1    
    48   23   92 1    
    49   23   93 1    
    50   24   25 am   BACKBONE|DICT|INTERRES
    51   24   94 1    
    52   25   26 2    
    53   25   27 1    
    54   27   28 1    
    55   27   29 1    
    56   27   95 1    
    57   28   96 1    
    58   28   97 1    
    59   28   98 1    
    60   29   30 am   BACKBONE|DICT|INTERRES
    61   29   99 1    
    62   30   31 2    
    63   30   32 1    
    64   32   33 1    
    65   32   34 1    
    66   32  100 1    
    67   33  101 1    
    68   33  102 1    
    69   33  103 1    
    70   34   35 am   BACKBONE|DICT|INTERRES
    71   34  104 1    
    72   35   36 2    
    73   37   38 2    
    74   37   39 am   BACKBONE|DICT|INTERRES
    75   39   40 1    
    76   39  105 1    
    77   40   41 1    
    78   40   42 1    
    79   40  106 1    
    80   41  107 1    
    81   41  108 1    
    82   41  109 1    
    83   42   43 2    
    84   42   44 am   BACKBONE|DICT|INTERRES
    85   44   45 1    
    86   44  110 1    
    87   45   46 1    
    88   45   47 1    
    89   45  111 1    
    90   46  112 1    
    91   46  113 1    
    92   46  114 1    
    93   47   48 2    
    94   47   49 am   BACKBONE|DICT|INTERRES
    95   49   50 1    
    96   49  115 1    
    97   50   51 1    
    98   50   52 1    
    99   50  116 1    
   100   51  117 1    
   101   51  118 1    
   102   51  119 1    
   103   52   53 2    
   104   52   54 am   BACKBONE|DICT|INTERRES
   105   54   55 1    
   106   54  120 1    
   107   55   56 1    
   108   55   57 1    
   109   55  121 1    
   110   56  122 1    
   111   56  123 1    
   112   56  124 1    
   113   57   58 2    
   114   57   59 am   BACKBONE|DICT|INTERRES
   115   59   60 1    
   116   59  125 1    
   117   60   61 1    
   118   60   62 1    
   119   60  126 1    
   120   61  127 1    
   121   61  128 1    
   122   61  129 1    
   123   62   63 2    
   124   62   64 am   BACKBONE|DICT|INTERRES
   125   64   65 1    
   126   64  130 1    
   127   65   66 1    
   128   65   69 1    
   129   65  131 1    
   130   66   67 am   BACKBONE|DICT|INTERRES
   131   66   68 2    
   132   67  132 1    
   133   67  133 1    
   134   69   70 1    
   135   69  134 1    
   136   69  135 1    
   137   70   71 1    
   138   71  136 1    
   139   71  137 1    
@<TRIPOS>SUBSTRUCTURE
     1 UNK         1 GROUP             0       ****    0 ROOT    
