@<TRIPOS>MOLECULE
3R137
137   139    1
SMALL
USER_CHARGES


@<TRIPOS>ATOM
      1 CA         30.5582    1.1359   -2.6337 C.3       0 UNK        -0.2020 
      2 C          29.5630   -0.0125   -2.5625 C.2       0 UNK         0.4855 
      3 O          28.9245   -0.3275   -3.5654 O.2       0 UNK        -0.5197 
      4 N          29.4297   -0.6425   -1.3883 N.am      1 UNK        -0.4892 
      5 CA         28.4377   -1.6913   -1.1295 C.3       1 UNK         0.0835 
      6 C6         28.9186   -2.6697   -0.0235 C.3       12 UNK        -0.0855 
      7 S7         28.3453   -4.3769   -0.3329 S.3       12 UNK        -0.2931 
      8 C8         29.8505   -5.1754   -0.9838 C.3       12 UNK         0.0378 
      9 C9         30.2596   -4.6092   -2.3368 C.ar      12 UNK        -0.0802 
     10 C10        31.2381   -3.6113   -2.4140 C.ar      12 UNK        -0.0944 
     11 C11        31.5968   -3.0673   -3.6493 C.ar      12 UNK        -0.0787 
     12 C12        31.0066   -3.5598   -4.8124 C.ar      12 UNK        -0.0862 
     13 C13        30.0142   -4.5408   -4.7523 C.ar      12 UNK        -0.0733 
     14 C14        29.6486   -5.0696   -3.5099 C.ar      12 UNK        -0.0832 
     15 C15        29.3219   -4.9922   -6.0334 C.3       12 UNK         0.0240 
     16 S16        27.6594   -4.2596   -6.2255 S.3       12 UNK        -0.2522 
     17 C17        27.9781   -2.4711   -6.0352 C.3       12 UNK        -0.0967 
     18 CA         27.4130   -1.5888   -7.1737 C.3       5 UNK         0.0660 
     19 N          25.9678   -1.7769   -7.3192 N.am      5 UNK        -0.4015 
     20 C          25.1121   -1.0346   -8.0355 C.2       4 UNK         0.4946 
     21 O          25.4582   -0.1641   -8.8334 O.2       4 UNK        -0.5353 
     22 CA         23.6091   -1.2381   -7.7559 C.3       4 UNK         0.0277 
     23 CB         22.9593   -2.0368   -8.8966 C.3       4 UNK        -0.1981 
     24 N          23.2969   -1.8831   -6.4694 N.am      4 UNK        -0.4209 
     25 C          23.7078   -1.4751   -5.2580 C.2       3 UNK         0.4942 
     26 O          24.4064   -0.4722   -5.0723 O.2       3 UNK        -0.5208 
     27 CA         23.3418   -2.3776   -4.0710 C.3       3 UNK         0.0250 
     28 CB         23.7778   -3.8411   -4.3068 C.3       3 UNK        -0.1990 
     29 N          24.0062   -1.8528   -2.8830 N.am      3 UNK        -0.4232 
     30 C          23.6997   -2.1246   -1.6116 C.2       2 UNK         0.4993 
     31 O          22.7709   -2.8589   -1.2693 O.2       2 UNK        -0.5286 
     32 CA         24.6291   -1.5015   -0.5615 C.3       2 UNK         0.0209 
     33 CB         24.2912   -1.9239    0.8819 C.3       2 UNK        -0.1931 
     34 N          26.0095   -1.8772   -0.8711 N.am      2 UNK        -0.4546 
     35 C          27.0686   -1.0661   -0.7811 C.2       1 UNK         0.5154 
     36 O          26.9962    0.1103   -0.4100 O.2       1 UNK        -0.5181 
     37 C          27.8124   -0.1242   -6.8874 C.2       5 UNK         0.5014 
     38 O          28.8029    0.3491   -7.4482 O.2       5 UNK        -0.5248 
     39 N          27.0384    0.5577   -6.0285 N.am      6 UNK        -0.4434 
     40 CA         27.2791    1.9409   -5.6192 C.3       6 UNK         0.0363 
     41 CB         26.4976    2.2346   -4.3285 C.3       6 UNK        -0.1936 
     42 C          26.9109    2.9493   -6.7172 C.2       6 UNK         0.5081 
     43 O          27.5904    3.9660   -6.8538 O.2       6 UNK        -0.5248 
     44 N          25.8593    2.6454   -7.4909 N.am      7 UNK        -0.4718 
     45 CA         25.4237    3.4379   -8.6434 C.3       7 UNK         0.0273 
     46 CB         23.9801    3.0612   -9.0149 C.3       7 UNK        -0.1935 
     47 C          26.3656    3.2570   -9.8439 C.2       7 UNK         0.5018 
     48 O          26.6738    4.2334  -10.5279 O.2       7 UNK        -0.5186 
     49 N          26.8244    2.0160  -10.0572 N.am      8 UNK        -0.4240 
     50 CA         27.8116    1.6477  -11.0733 C.3       8 UNK         0.0235 
     51 CB         27.8107    0.1179  -11.2319 C.3       8 UNK        -0.2000 
     52 C          29.2351    2.1428  -10.7578 C.2       8 UNK         0.4941 
     53 O          30.0363    2.2636  -11.6852 O.2       8 UNK        -0.5273 
     54 N          29.5244    2.3871   -9.4689 N.am      9 UNK        -0.4262 
     55 CA         30.8383    2.6829   -8.8836 C.3       9 UNK         0.0264 
     56 CB         31.3822    4.0404   -9.3770 C.3       9 UNK        -0.1955 
     57 C          31.8125    1.5107   -9.1068 C.2       9 UNK         0.5031 
     58 O          32.8984    1.6940   -9.6606 O.2       9 UNK        -0.5390 
     59 N          31.3627    0.3107   -8.7138 N.am      10 UNK        -0.4204 
     60 CA         32.0172   -0.9702   -8.9926 C.3       10 UNK         0.0237 
     61 CB         31.0567   -2.1137   -8.6319 C.3       10 UNK        -0.1985 
     62 C          33.3901   -1.1603   -8.3211 C.2       10 UNK         0.4970 
     63 O          34.2381   -1.8411   -8.9004 O.2       10 UNK        -0.4914 
     64 N          33.5935   -0.5611   -7.1408 N.am      11 UNK        -0.4285 
     65 CA         34.8977   -0.4984   -6.4632 C.3       11 UNK         0.1007 
     66 C          35.5816    0.8544   -6.7820 C.2       11 UNK         0.5703 
     67 N          36.8490    0.8397   -7.1718 N.am      11 UNK        -0.7361 
     68 O          34.9823    1.9187   -6.6380 O.2       11 UNK        -0.4986 
     69 C69        34.7835   -0.7050   -4.9302 C.3       12 UNK        -0.0947 
     70 S70        34.1401   -2.3561   -4.4962 S.3       12 UNK        -0.2240 
     71 C71        32.5564   -1.8931   -3.7398 C.3       12 UNK         0.0194 
     72 H72        31.2024    1.1732   -1.7519 H         1 UNK         0.0906 
     73 H73        30.0235    2.0850   -2.7106 H         1 UNK         0.0906 
     74 H74        31.1939    1.0314   -3.5154 H         1 UNK         0.0906 
     75 H75        29.9367   -0.3075   -0.5809 H         1 UNK         0.3140 
     76 H76        28.3127   -2.2539   -2.0588 H         1 UNK         0.1085 
     77 H77        30.0070   -2.6805    0.0381 H         1 UNK         0.0836 
     78 H78        28.5857   -2.3568    0.9686 H         1 UNK         0.0836 
     79 H79        30.6615   -5.0706   -0.2612 H         1 UNK         0.0731 
     80 H80        29.6675   -6.2469   -1.0778 H         1 UNK         0.0731 
     81 H81        31.6980   -3.2351   -1.5110 H         1 UNK         0.1312 
     82 H82        31.2975   -3.1422   -5.7645 H         1 UNK         0.1406 
     83 H83        28.8752   -5.8239   -3.4547 H         1 UNK         0.1631 
     84 H84        29.2319   -6.0793   -6.0351 H         1 UNK         0.0717 
     85 H85        29.9239   -4.7355   -6.9066 H         1 UNK         0.0717 
     86 H86        27.5614   -2.1719   -5.0707 H         1 UNK         0.0934 
     87 H87        29.0478   -2.2947   -5.9525 H         1 UNK         0.0934 
     88 H88        27.8753   -1.8830   -8.1174 H         1 UNK         0.0739 
     89 H89        25.5725   -2.4886   -6.7240 H         1 UNK         0.3093 
     90 H90        23.1575   -0.2442   -7.7339 H         1 UNK         0.0818 
     91 H91        21.8770   -2.0922   -8.7781 H         1 UNK         0.0819 
     92 H92        23.1521   -1.5660   -9.8620 H         1 UNK         0.0819 
     93 H93        23.3460   -3.0553   -8.9484 H         1 UNK         0.0819 
     94 H94        22.7288   -2.7167   -6.5214 H         1 UNK         0.3041 
     95 H95        22.2603   -2.3286   -3.9287 H         1 UNK         0.0784 
     96 H96        23.2626   -4.2854   -5.1587 H         1 UNK         0.0793 
     97 H97        24.8501   -3.9166   -4.4934 H         1 UNK         0.0793 
     98 H98        23.5495   -4.4684   -3.4450 H         1 UNK         0.0793 
     99 H99        24.7389   -1.1843   -3.0900 H         1 UNK         0.3024 
    100 H100       24.5046   -0.4186   -0.6403 H         1 UNK         0.1171 
    101 H101       23.2672   -1.6512    1.1404 H         1 UNK         0.0786 
    102 H102       24.9476   -1.4335    1.6010 H         1 UNK         0.0786 
    103 H103       24.3897   -3.0014    1.0196 H         1 UNK         0.0786 
    104 H104       26.1501   -2.8338   -1.1724 H         1 UNK         0.2977 
    105 H105       26.2229    0.1024   -5.6283 H         1 UNK         0.3127 
    106 H106       28.3445    2.0520   -5.4040 H         1 UNK         0.0770 
    107 H107       25.4218    2.1280   -4.4737 H         1 UNK         0.0814 
    108 H108       26.6828    3.2526   -3.9835 H         1 UNK         0.0814 
    109 H109       26.7947    1.5609   -3.5242 H         1 UNK         0.0814 
    110 H110       25.3874    1.7654   -7.3365 H         1 UNK         0.2983 
    111 H111       25.4394    4.4938   -8.3633 H         1 UNK         0.0947 
    112 H112       23.6252    3.6639   -9.8520 H         1 UNK         0.0806 
    113 H113       23.2986    3.2325   -8.1815 H         1 UNK         0.0806 
    114 H114       23.8940    2.0146   -9.3091 H         1 UNK         0.0806 
    115 H115       26.4468    1.2577   -9.4911 H         1 UNK         0.3000 
    116 H116       27.5080    2.0952  -12.0221 H         1 UNK         0.0850 
    117 H117       28.5105   -0.1966  -12.0074 H         1 UNK         0.0810 
    118 H118       26.8246   -0.2514  -11.5145 H         1 UNK         0.0810 
    119 H119       28.1014   -0.3818  -10.3067 H         1 UNK         0.0810 
    120 H120       28.7945    2.1927   -8.7953 H         1 UNK         0.3040 
    121 H121       30.6851    2.7605   -7.8059 H         1 UNK         0.0766 
    122 H122       31.6006    4.0301  -10.4451 H         1 UNK         0.0812 
    123 H123       30.6702    4.8436   -9.1875 H         1 UNK         0.0812 
    124 H124       32.3079    4.2969   -8.8605 H         1 UNK         0.0812 
    125 H125       30.4471    0.2727   -8.2660 H         1 UNK         0.3205 
    126 H126       32.1911   -1.0126  -10.0701 H         1 UNK         0.0754 
    127 H127       31.5353   -3.0879   -8.7433 H         1 UNK         0.0769 
    128 H128       30.1794   -2.1084   -9.2791 H         1 UNK         0.0769 
    129 H129       30.7098   -2.0285   -7.6043 H         1 UNK         0.0769 
    130 H130       32.8672    0.0280   -6.7629 H         1 UNK         0.2981 
    131 H131       35.5406   -1.2962   -6.8409 H         1 UNK         0.0541 
    132 H132       37.3518   -0.0275   -7.2814 H         1 UNK         0.3459 
    133 H133       37.3105    1.7142   -7.3678 H         1 UNK         0.3459 
    134 H134       34.1638    0.0723   -4.4792 H         1 UNK         0.0612 
    135 H135       35.7664   -0.6124   -4.4645 H         1 UNK         0.0612 
    136 H136       32.7402   -1.4596   -2.7555 H         1 UNK         0.0624 
    137 H137       32.0854   -1.1141   -4.3408 H         1 UNK         0.0624 
@<TRIPOS>BOND
     1    1    2 1    
     2    1   72 1    
     3    1   73 1    
     4    1   74 1    
     5    2    3 2    
     6    2    4 am   BACKBONE|DICT|INTERRES
     7    4    5 1    
     8    4   75 1    
     9    5    6 1    
    10    5   35 1    
    11    5   76 1    
    12    6    7 1    
    13    6   77 1    
    14    6   78 1    
    15    7    8 1    
    16    8    9 1    
    17    8   79 1    
    18    8   80 1    
    19    9   10 ar   
    20    9   14 ar   
    21   10   11 ar   
    22   10   81 1    
    23   11   12 ar   
    24   11   71 1    
    25   12   13 ar   
    26   12   82 1    
    27   13   14 ar   
    28   13   15 1    
    29   14   83 1    
    30   15   16 1    
    31   15   84 1    
    32   15   85 1    
    33   16   17 1    
    34   17   18 1    
    35   17   86 1    
    36   17   87 1    
    37   18   19 1    
    38   18   37 1    
    39   18   88 1    
    40   19   20 am   BACKBONE|DICT|INTERRES
    41   19   89 1    
    42   20   21 2    
    43   20   22 1    
    44   22   23 1    
    45   22   24 1    
    46   22   90 1    
    47   23   91 1    
    48   23   92 1    
    49   23   93 1    
    50   24   25 am   BACKBONE|DICT|INTERRES
    51   24   94 1    
    52   25   26 2    
    53   25   27 1    
    54   27   28 1    
    55   27   29 1    
    56   27   95 1    
    57   28   96 1    
    58   28   97 1    
    59   28   98 1    
    60   29   30 am   BACKBONE|DICT|INTERRES
    61   29   99 1    
    62   30   31 2    
    63   30   32 1    
    64   32   33 1    
    65   32   34 1    
    66   32  100 1    
    67   33  101 1    
    68   33  102 1    
    69   33  103 1    
    70   34   35 am   BACKBONE|DICT|INTERRES
    71   34  104 1    
    72   35   36 2    
    73   37   38 2    
    74   37   39 am   BACKBONE|DICT|INTERRES
    75   39   40 1    
    76   39  105 1    
    77   40   41 1    
    78   40   42 1    
    79   40  106 1    
    80   41  107 1    
    81   41  108 1    
    82   41  109 1    
    83   42   43 2    
    84   42   44 am   BACKBONE|DICT|INTERRES
    85   44   45 1    
    86   44  110 1    
    87   45   46 1    
    88   45   47 1    
    89   45  111 1    
    90   46  112 1    
    91   46  113 1    
    92   46  114 1    
    93   47   48 2    
    94   47   49 am   BACKBONE|DICT|INTERRES
    95   49   50 1    
    96   49  115 1    
    97   50   51 1    
    98   50   52 1    
    99   50  116 1    
   100   51  117 1    
   101   51  118 1    
   102   51  119 1    
   103   52   53 2    
   104   52   54 am   BACKBONE|DICT|INTERRES
   105   54   55 1    
   106   54  120 1    
   107   55   56 1    
   108   55   57 1    
   109   55  121 1    
   110   56  122 1    
   111   56  123 1    
   112   56  124 1    
   113   57   58 2    
   114   57   59 am   BACKBONE|DICT|INTERRES
   115   59   60 1    
   116   59  125 1    
   117   60   61 1    
   118   60   62 1    
   119   60  126 1    
   120   61  127 1    
   121   61  128 1    
   122   61  129 1    
   123   62   63 2    
   124   62   64 am   BACKBONE|DICT|INTERRES
   125   64   65 1    
   126   64  130 1    
   127   65   66 1    
   128   65   69 1    
   129   65  131 1    
   130   66   67 am   BACKBONE|DICT|INTERRES
   131   66   68 2    
   132   67  132 1    
   133   67  133 1    
   134   69   70 1    
   135   69  134 1    
   136   69  135 1    
   137   70   71 1    
   138   71  136 1    
   139   71  137 1    
@<TRIPOS>SUBSTRUCTURE
     1 UNK         1 GROUP             0       ****    0 ROOT    
