@<TRIPOS>MOLECULE
3R137
137   139    1
SMALL
USER_CHARGES


@<TRIPOS>ATOM
      1 CA         25.9187   -6.7433   -3.2666 C.3       0 UNK        -0.2020 
      2 C          26.0055   -5.6582   -2.2048 C.2       0 UNK         0.4855 
      3 O          24.9745   -5.2103   -1.7015 O.2       0 UNK        -0.5197 
      4 N          27.2267   -5.2206   -1.8712 N.am      1 UNK        -0.4892 
      5 CA         27.5299   -4.1437   -0.9212 C.3       1 UNK         0.0835 
      6 C6         29.0570   -3.9797   -0.6802 C.3       12 UNK        -0.0855 
      7 S7         30.0996   -4.0869   -2.1835 S.3       12 UNK        -0.2931 
      8 C8         31.4667   -2.9508   -1.7912 C.3       12 UNK         0.0378 
      9 C9         31.2660   -1.5794   -2.4202 C.ar      12 UNK        -0.0802 
     10 C10        31.8105   -1.3011   -3.6782 C.ar      12 UNK        -0.0944 
     11 C11        31.6600   -0.0362   -4.2552 C.ar      12 UNK        -0.0787 
     12 C12        30.9803    0.9606   -3.5516 C.ar      12 UNK        -0.0862 
     13 C13        30.4101    0.6901   -2.3033 C.ar      12 UNK        -0.0733 
     14 C14        30.5591   -0.5824   -1.7414 C.ar      12 UNK        -0.0832 
     15 C15        29.6346    1.7698   -1.5574 C.3       12 UNK         0.0240 
     16 S16        28.3308    2.5417   -2.5739 S.3       12 UNK        -0.2522 
     17 C17        27.3154    1.1022   -3.0522 C.3       12 UNK        -0.0967 
     18 CA         27.5055    0.6768   -4.5331 C.3       5 UNK         0.0660 
     19 N          27.1440   -0.7345   -4.7244 N.am      5 UNK        -0.4015 
     20 C          27.1392   -1.4341   -5.8705 C.2       4 UNK         0.4946 
     21 O          27.4430   -0.9667   -6.9675 O.2       4 UNK        -0.5353 
     22 CA         26.6369   -2.8851   -5.7872 C.3       4 UNK         0.0277 
     23 CB         27.7706   -3.8477   -5.4014 C.3       4 UNK        -0.1981 
     24 N          25.5360   -3.0144   -4.8300 N.am      4 UNK        -0.4209 
     25 C          24.2677   -2.6592   -5.0830 C.2       3 UNK         0.4942 
     26 O          23.8779   -2.2508   -6.1766 O.2       3 UNK        -0.5208 
     27 CA         23.2654   -2.7552   -3.9196 C.3       3 UNK         0.0250 
     28 CB         22.5684   -4.1250   -3.9144 C.3       3 UNK        -0.1990 
     29 N          23.8914   -2.5099   -2.6170 N.am      3 UNK        -0.4232 
     30 C          24.2588   -1.2920   -2.1881 C.2       2 UNK         0.4993 
     31 O          24.0475   -0.2562   -2.8189 O.2       2 UNK        -0.5286 
     32 CA         25.0226   -1.2071   -0.8520 C.3       2 UNK         0.0209 
     33 CB         24.0438   -0.9781    0.3106 C.3       2 UNK        -0.1931 
     34 N          25.8579   -2.3781   -0.5604 N.am      2 UNK        -0.4546 
     35 C          26.8509   -2.8255   -1.3419 C.2       1 UNK         0.5154 
     36 O          27.1809   -2.2777   -2.3932 O.2       1 UNK        -0.5181 
     37 C          26.7903    1.6547   -5.4919 C.2       5 UNK         0.5014 
     38 O          27.3543    2.7000   -5.8158 O.2       5 UNK        -0.5248 
     39 N          25.5959    1.2848   -5.9787 N.am      6 UNK        -0.4434 
     40 CA         24.8381    1.9934   -7.0146 C.3       6 UNK         0.0363 
     41 CB         23.5153    1.2500   -7.2588 C.3       6 UNK        -0.1936 
     42 C          25.5975    2.1921   -8.3445 C.2       6 UNK         0.5081 
     43 O          25.2675    3.1208   -9.0826 O.2       6 UNK        -0.5248 
     44 N          26.6054    1.3510   -8.6250 N.am      7 UNK        -0.4718 
     45 CA         27.5186    1.5052   -9.7616 C.3       7 UNK         0.0273 
     46 CB         28.2537    0.1764   -9.9993 C.3       7 UNK        -0.1935 
     47 C          28.5383    2.6475   -9.5827 C.2       7 UNK         0.5018 
     48 O          29.1086    3.0910  -10.5794 O.2       7 UNK        -0.5186 
     49 N          28.7675    3.0903   -8.3361 N.am      8 UNK        -0.4240 
     50 CA         29.7030    4.1261   -7.8708 C.3       8 UNK         0.0235 
     51 CB         29.4000    5.4963   -8.5081 C.3       8 UNK        -0.2000 
     52 C          31.1956    3.7676   -8.0022 C.2       8 UNK         0.4941 
     53 O          31.9598    4.0597   -7.0813 O.2       8 UNK        -0.5273 
     54 N          31.5910    3.1450   -9.1155 N.am      9 UNK        -0.4262 
     55 CA         32.9329    2.6433   -9.3916 C.3       9 UNK         0.0264 
     56 CB         33.7627    3.7330  -10.0922 C.3       9 UNK        -0.1955 
     57 C          32.8074    1.3907  -10.2651 C.2       9 UNK         0.5031 
     58 O          31.8195    1.2573  -10.9916 O.2       9 UNK        -0.5390 
     59 N          33.8095    0.5016  -10.1772 N.am      10 UNK        -0.4204 
     60 CA         33.8694   -0.8189  -10.8268 C.3       10 UNK         0.0237 
     61 CB         34.0359   -0.6742  -12.3552 C.3       10 UNK        -0.1985 
     62 C          32.6774   -1.7155  -10.4287 C.2       10 UNK         0.4970 
     63 O          32.0511   -2.3421  -11.2853 O.2       10 UNK        -0.4914 
     64 N          32.3747   -1.7175   -9.1247 N.am      11 UNK        -0.4285 
     65 CA         31.1857   -2.3367   -8.5204 C.3       11 UNK         0.1007 
     66 C          31.1511   -3.8923   -8.5604 C.2       11 UNK         0.5703 
     67 N          32.2622   -4.5758   -8.8090 N.am      11 UNK        -0.7361 
     68 O          30.0949   -4.4885   -8.3677 O.2       11 UNK        -0.4986 
     69 C69        30.9541   -1.8206   -7.0752 C.3       12 UNK        -0.0947 
     70 S70        30.9659    0.0020   -6.9326 S.3       12 UNK        -0.2240 
     71 C71        32.2203    0.2628   -5.6386 C.3       12 UNK         0.0194 
     72 H72        25.3620   -7.5982   -2.8838 H         1 UNK         0.0906 
     73 H73        25.4009   -6.3659   -4.1479 H         1 UNK         0.0906 
     74 H74        26.9044   -7.0915   -3.5750 H         1 UNK         0.0906 
     75 H75        28.0388   -5.5938   -2.3438 H         1 UNK         0.3140 
     76 H76        27.0906   -4.4431    0.0329 H         1 UNK         0.1085 
     77 H77        29.2630   -3.0490   -0.1487 H         1 UNK         0.0836 
     78 H78        29.3938   -4.7716   -0.0093 H         1 UNK         0.0836 
     79 H79        32.3948   -3.3902   -2.1600 H         1 UNK         0.0731 
     80 H80        31.5911   -2.8622   -0.7109 H         1 UNK         0.0731 
     81 H81        32.3511   -2.0734   -4.2070 H         1 UNK         0.1312 
     82 H82        30.8646    1.9415   -3.9929 H         1 UNK         0.1406 
     83 H83        30.1291   -0.7980   -0.7732 H         1 UNK         0.1631 
     84 H84        30.3314    2.5433   -1.2322 H         1 UNK         0.0717 
     85 H85        29.1768    1.3663   -0.6529 H         1 UNK         0.0717 
     86 H86        27.5798    0.2800   -2.3876 H         1 UNK         0.0934 
     87 H87        26.2682    1.3246   -2.8396 H         1 UNK         0.0934 
     88 H88        28.5662    0.7293   -4.7801 H         1 UNK         0.0739 
     89 H89        26.9726   -1.2578   -3.8677 H         1 UNK         0.3093 
     90 H90        26.2736   -3.1725   -6.7765 H         1 UNK         0.0818 
     91 H91        28.2559   -3.5539   -4.4708 H         1 UNK         0.0819 
     92 H92        27.4061   -4.8678   -5.2846 H         1 UNK         0.0819 
     93 H93        28.5374   -3.8719   -6.1747 H         1 UNK         0.0819 
     94 H94        25.7877   -3.2717   -3.8854 H         1 UNK         0.3041 
     95 H95        22.5006   -1.9921   -4.0812 H         1 UNK         0.0784 
     96 H96        22.0434   -4.2967   -4.8551 H         1 UNK         0.0793 
     97 H97        23.2770   -4.9430   -3.7854 H         1 UNK         0.0793 
     98 H98        21.8302   -4.1918   -3.1151 H         1 UNK         0.0793 
     99 H99        24.1241   -3.3246   -2.0573 H         1 UNK         0.3024 
    100 H100       25.6837   -0.3407   -0.9138 H         1 UNK         0.1171 
    101 H101       23.4247   -0.0976    0.1317 H         1 UNK         0.0786 
    102 H102       24.5728   -0.8132    1.2494 H         1 UNK         0.0786 
    103 H103       23.3719   -1.8266    0.4465 H         1 UNK         0.0786 
    104 H104       25.6146   -2.9067    0.2654 H         1 UNK         0.2977 
    105 H105       25.2109    0.4056   -5.6634 H         1 UNK         0.3127 
    106 H106       24.6082    2.9868   -6.6244 H         1 UNK         0.0770 
    107 H107       23.6858    0.2375   -7.6275 H         1 UNK         0.0814 
    108 H108       22.9059    1.7691   -7.9999 H         1 UNK         0.0814 
    109 H109       22.9233    1.1792   -6.3460 H         1 UNK         0.0814 
    110 H110       26.8159    0.5951   -7.9764 H         1 UNK         0.2983 
    111 H111       26.9274    1.7329  -10.6513 H         1 UNK         0.0947 
    112 H112       28.9220    0.2442  -10.8592 H         1 UNK         0.0806 
    113 H113       27.5555   -0.6385  -10.1904 H         1 UNK         0.0806 
    114 H114       28.8627   -0.0990   -9.1384 H         1 UNK         0.0806 
    115 H115       28.2256    2.6680   -7.5872 H         1 UNK         0.3000 
    116 H116       29.5072    4.2189   -6.8011 H         1 UNK         0.0850 
    117 H117       30.0215    6.2752   -8.0645 H         1 UNK         0.0810 
    118 H118       28.3599    5.7833   -8.3531 H         1 UNK         0.0810 
    119 H119       29.5943    5.5014   -9.5808 H         1 UNK         0.0810 
    120 H120       30.8940    2.9174   -9.8227 H         1 UNK         0.3040 
    121 H121       33.4136    2.3616   -8.4520 H         1 UNK         0.0766 
    122 H122       33.8608    4.6199   -9.4659 H         1 UNK         0.0812 
    123 H123       33.3079    4.0383  -11.0356 H         1 UNK         0.0812 
    124 H124       34.7704    3.3794  -10.3135 H         1 UNK         0.0812 
    125 H125       34.5845    0.7199   -9.5654 H         1 UNK         0.3205 
    126 H126       34.7637   -1.3140  -10.4453 H         1 UNK         0.0754 
    127 H127       34.1915   -1.6463  -12.8249 H         1 UNK         0.0769 
    128 H128       34.8971   -0.0538  -12.6030 H         1 UNK         0.0769 
    129 H129       33.1563   -0.2268  -12.8194 H         1 UNK         0.0769 
    130 H130       32.9426   -1.1696   -8.4975 H         1 UNK         0.2981 
    131 H131       30.3336   -2.0110   -9.1192 H         1 UNK         0.0541 
    132 H132       32.2261   -5.5824   -8.8375 H         1 UNK         0.3459 
    133 H133       33.1315   -4.0956   -8.9756 H         1 UNK         0.3459 
    134 H134       29.9925   -2.1655   -6.6974 H         1 UNK         0.0612 
    135 H135       31.7082   -2.2435   -6.4117 H         1 UNK         0.0612 
    136 H136       32.5532    1.3010   -5.6840 H         1 UNK         0.0624 
    137 H137       33.1008   -0.3483   -5.8417 H         1 UNK         0.0624 
@<TRIPOS>BOND
     1    1    2 1    
     2    1   72 1    
     3    1   73 1    
     4    1   74 1    
     5    2    3 2    
     6    2    4 am   BACKBONE|DICT|INTERRES
     7    4    5 1    
     8    4   75 1    
     9    5    6 1    
    10    5   35 1    
    11    5   76 1    
    12    6    7 1    
    13    6   77 1    
    14    6   78 1    
    15    7    8 1    
    16    8    9 1    
    17    8   79 1    
    18    8   80 1    
    19    9   10 ar   
    20    9   14 ar   
    21   10   11 ar   
    22   10   81 1    
    23   11   12 ar   
    24   11   71 1    
    25   12   13 ar   
    26   12   82 1    
    27   13   14 ar   
    28   13   15 1    
    29   14   83 1    
    30   15   16 1    
    31   15   84 1    
    32   15   85 1    
    33   16   17 1    
    34   17   18 1    
    35   17   86 1    
    36   17   87 1    
    37   18   19 1    
    38   18   37 1    
    39   18   88 1    
    40   19   20 am   BACKBONE|DICT|INTERRES
    41   19   89 1    
    42   20   21 2    
    43   20   22 1    
    44   22   23 1    
    45   22   24 1    
    46   22   90 1    
    47   23   91 1    
    48   23   92 1    
    49   23   93 1    
    50   24   25 am   BACKBONE|DICT|INTERRES
    51   24   94 1    
    52   25   26 2    
    53   25   27 1    
    54   27   28 1    
    55   27   29 1    
    56   27   95 1    
    57   28   96 1    
    58   28   97 1    
    59   28   98 1    
    60   29   30 am   BACKBONE|DICT|INTERRES
    61   29   99 1    
    62   30   31 2    
    63   30   32 1    
    64   32   33 1    
    65   32   34 1    
    66   32  100 1    
    67   33  101 1    
    68   33  102 1    
    69   33  103 1    
    70   34   35 am   BACKBONE|DICT|INTERRES
    71   34  104 1    
    72   35   36 2    
    73   37   38 2    
    74   37   39 am   BACKBONE|DICT|INTERRES
    75   39   40 1    
    76   39  105 1    
    77   40   41 1    
    78   40   42 1    
    79   40  106 1    
    80   41  107 1    
    81   41  108 1    
    82   41  109 1    
    83   42   43 2    
    84   42   44 am   BACKBONE|DICT|INTERRES
    85   44   45 1    
    86   44  110 1    
    87   45   46 1    
    88   45   47 1    
    89   45  111 1    
    90   46  112 1    
    91   46  113 1    
    92   46  114 1    
    93   47   48 2    
    94   47   49 am   BACKBONE|DICT|INTERRES
    95   49   50 1    
    96   49  115 1    
    97   50   51 1    
    98   50   52 1    
    99   50  116 1    
   100   51  117 1    
   101   51  118 1    
   102   51  119 1    
   103   52   53 2    
   104   52   54 am   BACKBONE|DICT|INTERRES
   105   54   55 1    
   106   54  120 1    
   107   55   56 1    
   108   55   57 1    
   109   55  121 1    
   110   56  122 1    
   111   56  123 1    
   112   56  124 1    
   113   57   58 2    
   114   57   59 am   BACKBONE|DICT|INTERRES
   115   59   60 1    
   116   59  125 1    
   117   60   61 1    
   118   60   62 1    
   119   60  126 1    
   120   61  127 1    
   121   61  128 1    
   122   61  129 1    
   123   62   63 2    
   124   62   64 am   BACKBONE|DICT|INTERRES
   125   64   65 1    
   126   64  130 1    
   127   65   66 1    
   128   65   69 1    
   129   65  131 1    
   130   66   67 am   BACKBONE|DICT|INTERRES
   131   66   68 2    
   132   67  132 1    
   133   67  133 1    
   134   69   70 1    
   135   69  134 1    
   136   69  135 1    
   137   70   71 1    
   138   71  136 1    
   139   71  137 1    
@<TRIPOS>SUBSTRUCTURE
     1 UNK         1 GROUP             0       ****    0 ROOT    
