@<TRIPOS>MOLECULE
3R137
137   139    1
SMALL
USER_CHARGES


@<TRIPOS>ATOM
      1 CA         24.4752   -6.3416   -3.4529 C.3       0 UNK        -0.2020 
      2 C          24.9838   -5.2910   -2.4772 C.2       0 UNK         0.4855 
      3 O          24.1963   -4.4817   -1.9851 O.2       0 UNK        -0.5197 
      4 N          26.2947   -5.3042   -2.1968 N.am      1 UNK        -0.4892 
      5 CA         27.0050   -4.3927   -1.2906 C.3       1 UNK         0.0835 
      6 C6         28.5059   -4.7694   -1.2151 C.3       12 UNK        -0.0855 
      7 S7         29.4035   -3.9188    0.1306 S.3       12 UNK        -0.2931 
      8 C8         31.0975   -3.8149   -0.5452 C.3       12 UNK         0.0378 
      9 C9         31.1573   -2.9916   -1.8249 C.ar      12 UNK        -0.0802 
     10 C10        31.4262   -3.6067   -3.0509 C.ar      12 UNK        -0.0944 
     11 C11        31.4152   -2.8723   -4.2407 C.ar      12 UNK        -0.0787 
     12 C12        31.1219   -1.5013   -4.1894 C.ar      12 UNK        -0.0862 
     13 C13        30.8725   -0.8695   -2.9672 C.ar      12 UNK        -0.0733 
     14 C14        30.9106   -1.6182   -1.7872 C.ar      12 UNK        -0.0832 
     15 C15        30.5253    0.6121   -2.9194 C.3       12 UNK         0.0240 
     16 S16        28.8755    0.8508   -2.1898 S.3       12 UNK        -0.2522 
     17 C17        28.1143    2.1434   -3.2240 C.3       12 UNK        -0.0967 
     18 CA         27.9164    1.7792   -4.7221 C.3       5 UNK         0.0660 
     19 N          27.5529    0.3800   -4.9617 N.am      5 UNK        -0.4015 
     20 C          27.5681   -0.2133   -6.1648 C.2       4 UNK         0.4946 
     21 O          27.9674    0.3332   -7.1944 O.2       4 UNK        -0.5353 
     22 CA         26.9980   -1.6383   -6.2450 C.3       4 UNK         0.0277 
     23 CB         28.0926   -2.6850   -5.9910 C.3       4 UNK        -0.1981 
     24 N          25.8881   -1.8378   -5.3092 N.am      4 UNK        -0.4209 
     25 C          24.6688   -1.3016   -5.4781 C.2       3 UNK         0.4942 
     26 O          24.3522   -0.6358   -6.4625 O.2       3 UNK        -0.5208 
     27 CA         23.6375   -1.4924   -4.3515 C.3       3 UNK         0.0250 
     28 CB         22.7972   -2.7538   -4.5976 C.3       3 UNK        -0.1990 
     29 N          24.2398   -1.5465   -3.0178 N.am      3 UNK        -0.4232 
     30 C          24.9106   -0.5290   -2.4555 C.2       2 UNK         0.4993 
     31 O          25.0366    0.5764   -2.9855 O.2       2 UNK        -0.5286 
     32 CA         25.5990   -0.7934   -1.1038 C.3       2 UNK         0.0209 
     33 CB         24.6924   -0.3415    0.0516 C.3       2 UNK        -0.1931 
     34 N          26.0090   -2.1857   -0.8823 N.am      2 UNK        -0.4546 
     35 C          26.7816   -2.9196   -1.6985 C.2       1 UNK         0.5154 
     36 O          27.2396   -2.5060   -2.7652 O.2       1 UNK        -0.5181 
     37 C          26.8836    2.7217   -5.3676 C.2       5 UNK         0.5014 
     38 O          27.2719    3.6610   -6.0616 O.2       5 UNK        -0.5248 
     39 N          25.5899    2.4303   -5.1553 N.am      6 UNK        -0.4434 
     40 CA         24.4554    3.1569   -5.7351 C.3       6 UNK         0.0363 
     41 CB         23.1438    2.6249   -5.1370 C.3       6 UNK        -0.1936 
     42 C          24.4161    3.0942   -7.2725 C.2       6 UNK         0.5081 
     43 O          24.1102    4.1012   -7.9112 O.2       6 UNK        -0.5248 
     44 N          24.7606    1.9297   -7.8397 N.am      7 UNK        -0.4718 
     45 CA         24.9209    1.7158   -9.2817 C.3       7 UNK         0.0273 
     46 CB         24.9177    0.2044   -9.5648 C.3       7 UNK        -0.1935 
     47 C          26.1916    2.3605   -9.8697 C.2       7 UNK         0.5018 
     48 O          26.2962    2.4466  -11.0940 O.2       7 UNK        -0.5186 
     49 N          27.1275    2.7800   -9.0036 N.am      8 UNK        -0.4240 
     50 CA         28.4495    3.3369   -9.3069 C.3       8 UNK         0.0235 
     51 CB         28.3246    4.7151   -9.9912 C.3       8 UNK        -0.2000 
     52 C          29.3359    2.3456  -10.0842 C.2       8 UNK         0.4941 
     53 O          29.9501    2.7181  -11.0870 O.2       8 UNK        -0.5273 
     54 N          29.3703    1.0908   -9.6142 N.am      9 UNK        -0.4262 
     55 CA         30.1830    0.0132  -10.1793 C.3       9 UNK         0.0264 
     56 CB         29.7551   -1.3168   -9.5412 C.3       9 UNK        -0.1955 
     57 C          31.6880    0.2567   -9.9690 C.2       9 UNK         0.5031 
     58 O          32.0868    0.8264   -8.9486 O.2       9 UNK        -0.5390 
     59 N          32.5040   -0.2120  -10.9221 N.am      10 UNK        -0.4204 
     60 CA         33.9656   -0.0833  -10.9327 C.3       10 UNK         0.0237 
     61 CB         34.4651   -0.2040  -12.3853 C.3       10 UNK        -0.1985 
     62 C          34.6507   -1.0878   -9.9831 C.2       10 UNK         0.4970 
     63 O          35.4693   -1.8981  -10.4217 O.2       10 UNK        -0.4914 
     64 N          34.2863   -1.0245   -8.6994 N.am      11 UNK        -0.4285 
     65 CA         34.7882   -1.8930   -7.6230 C.3       11 UNK         0.1007 
     66 C          36.2189   -1.5405   -7.1212 C.2       11 UNK         0.5703 
     67 N          36.8043   -0.4127   -7.5074 N.am      11 UNK        -0.7361 
     68 O          36.8144   -2.3131   -6.3740 O.2       11 UNK        -0.4986 
     69 C69        33.7828   -1.9600   -6.4449 C.3       12 UNK        -0.0947 
     70 S70        32.1480   -2.5759   -6.9713 S.3       12 UNK        -0.2240 
     71 C71        31.6740   -3.6181   -5.5519 C.3       12 UNK         0.0194 
     72 H72        25.2017   -7.1397   -3.6048 H         1 UNK         0.0906 
     73 H73        23.5573   -6.7916   -3.0756 H         1 UNK         0.0906 
     74 H74        24.2605   -5.8893   -4.4201 H         1 UNK         0.0906 
     75 H75        26.8789   -5.9839   -2.6627 H         1 UNK         0.3140 
     76 H76        26.5748   -4.5443   -0.2983 H         1 UNK         0.1085 
     77 H77        28.6119   -5.8411   -1.0395 H         1 UNK         0.0836 
     78 H78        28.9845   -4.5772   -2.1759 H         1 UNK         0.0836 
     79 H79        31.4766   -4.8243   -0.7131 H         1 UNK         0.0731 
     80 H80        31.7505   -3.3630    0.2027 H         1 UNK         0.0731 
     81 H81        31.6196   -4.6704   -3.0833 H         1 UNK         0.1312 
     82 H82        31.0707   -0.9203   -5.0990 H         1 UNK         0.1406 
     83 H83        30.6957   -1.1398   -0.8412 H         1 UNK         0.1631 
     84 H84        30.5679    1.0490   -3.9169 H         1 UNK         0.0717 
     85 H85        31.2645    1.1417   -2.3172 H         1 UNK         0.0717 
     86 H86        27.1569    2.3724   -2.7507 H         1 UNK         0.0934 
     87 H87        28.7094    3.0544   -3.1370 H         1 UNK         0.0934 
     88 H88        28.8660    1.9495   -5.2335 H         1 UNK         0.0739 
     89 H89        27.2317   -0.1437   -4.1590 H         1 UNK         0.3093 
     90 H90        26.6212   -1.7874   -7.2590 H         1 UNK         0.0818 
     91 H91        28.5394   -2.5740   -5.0032 H         1 UNK         0.0819 
     92 H92        27.7007   -3.6990   -6.0690 H         1 UNK         0.0819 
     93 H93        28.8970   -2.5915   -6.7204 H         1 UNK         0.0819 
     94 H94        26.1119   -2.3058   -4.4361 H         1 UNK         0.3041 
     95 H95        22.9661   -0.6318   -4.3710 H         1 UNK         0.0784 
     96 H96        22.2747   -2.6921   -5.5533 H         1 UNK         0.0793 
     97 H97        23.4159   -3.6499   -4.6235 H         1 UNK         0.0793 
     98 H98        22.0424   -2.8884   -3.8226 H         1 UNK         0.0793 
     99 H99        24.1984   -2.4350   -2.5281 H         1 UNK         0.3024 
    100 H100       26.5021   -0.1844   -1.0808 H         1 UNK         0.1171 
    101 H101       24.3904    0.6995   -0.0740 H         1 UNK         0.0786 
    102 H102       25.2051   -0.4132    1.0110 H         1 UNK         0.0786 
    103 H103       23.7826   -0.9405    0.1089 H         1 UNK         0.0786 
    104 H104       25.6397   -2.6278   -0.0529 H         1 UNK         0.2977 
    105 H105       25.3654    1.6685   -4.5180 H         1 UNK         0.3127 
    106 H106       24.5597    4.2058   -5.4500 H         1 UNK         0.0770 
    107 H107       22.9755    1.5808   -5.4012 H         1 UNK         0.0814 
    108 H108       22.2894    3.1952   -5.5038 H         1 UNK         0.0814 
    109 H109       23.1425    2.6999   -4.0494 H         1 UNK         0.0814 
    110 H110       24.9075    1.1202   -7.2434 H         1 UNK         0.2983 
    111 H111       24.0650    2.1629   -9.7919 H         1 UNK         0.0947 
    112 H112       24.9952    0.0044  -10.6343 H         1 UNK         0.0806 
    113 H113       23.9977   -0.2637   -9.2144 H         1 UNK         0.0806 
    114 H114       25.7557   -0.2955   -9.0777 H         1 UNK         0.0806 
    115 H115       26.9346    2.6576   -8.0170 H         1 UNK         0.3000 
    116 H116       28.9414    3.4913   -8.3453 H         1 UNK         0.0850 
    117 H117       29.3036    5.1807  -10.1106 H         1 UNK         0.0810 
    118 H118       27.7122    5.3956   -9.3995 H         1 UNK         0.0810 
    119 H119       27.8788    4.6380  -10.9833 H         1 UNK         0.0810 
    120 H120       28.8538    0.8710   -8.7638 H         1 UNK         0.3040 
    121 H121       29.9809   -0.0324  -11.2515 H         1 UNK         0.0766 
    122 H122       28.7028   -1.5292   -9.7308 H         1 UNK         0.0812 
    123 H123       29.9012   -1.2986   -8.4613 H         1 UNK         0.0812 
    124 H124       30.3346   -2.1523   -9.9360 H         1 UNK         0.0812 
    125 H125       32.0967   -0.7075  -11.7025 H         1 UNK         0.3205 
    126 H126       34.2269    0.9165  -10.5788 H         1 UNK         0.0754 
    127 H127       35.5463   -0.0688  -12.4402 H         1 UNK         0.0769 
    128 H128       34.0146    0.5560  -13.0242 H         1 UNK         0.0769 
    129 H129       34.2361   -1.1812  -12.8128 H         1 UNK         0.0769 
    130 H130       33.5759   -0.3455   -8.4422 H         1 UNK         0.2981 
    131 H131       34.8679   -2.9015   -8.0337 H         1 UNK         0.0541 
    132 H132       36.3249    0.2283   -8.1186 H         1 UNK         0.3459 
    133 H133       37.7332   -0.2005   -7.1789 H         1 UNK         0.3459 
    134 H134       34.1635   -2.6109   -5.6556 H         1 UNK         0.0612 
    135 H135       33.6517   -0.9748   -5.9940 H         1 UNK         0.0612 
    136 H136       32.4519   -4.3687   -5.4034 H         1 UNK         0.0624 
    137 H137       30.7683   -4.1637   -5.8187 H         1 UNK         0.0624 
@<TRIPOS>BOND
     1    1    2 1    
     2    1   72 1    
     3    1   73 1    
     4    1   74 1    
     5    2    3 2    
     6    2    4 am   BACKBONE|DICT|INTERRES
     7    4    5 1    
     8    4   75 1    
     9    5    6 1    
    10    5   35 1    
    11    5   76 1    
    12    6    7 1    
    13    6   77 1    
    14    6   78 1    
    15    7    8 1    
    16    8    9 1    
    17    8   79 1    
    18    8   80 1    
    19    9   10 ar   
    20    9   14 ar   
    21   10   11 ar   
    22   10   81 1    
    23   11   12 ar   
    24   11   71 1    
    25   12   13 ar   
    26   12   82 1    
    27   13   14 ar   
    28   13   15 1    
    29   14   83 1    
    30   15   16 1    
    31   15   84 1    
    32   15   85 1    
    33   16   17 1    
    34   17   18 1    
    35   17   86 1    
    36   17   87 1    
    37   18   19 1    
    38   18   37 1    
    39   18   88 1    
    40   19   20 am   BACKBONE|DICT|INTERRES
    41   19   89 1    
    42   20   21 2    
    43   20   22 1    
    44   22   23 1    
    45   22   24 1    
    46   22   90 1    
    47   23   91 1    
    48   23   92 1    
    49   23   93 1    
    50   24   25 am   BACKBONE|DICT|INTERRES
    51   24   94 1    
    52   25   26 2    
    53   25   27 1    
    54   27   28 1    
    55   27   29 1    
    56   27   95 1    
    57   28   96 1    
    58   28   97 1    
    59   28   98 1    
    60   29   30 am   BACKBONE|DICT|INTERRES
    61   29   99 1    
    62   30   31 2    
    63   30   32 1    
    64   32   33 1    
    65   32   34 1    
    66   32  100 1    
    67   33  101 1    
    68   33  102 1    
    69   33  103 1    
    70   34   35 am   BACKBONE|DICT|INTERRES
    71   34  104 1    
    72   35   36 2    
    73   37   38 2    
    74   37   39 am   BACKBONE|DICT|INTERRES
    75   39   40 1    
    76   39  105 1    
    77   40   41 1    
    78   40   42 1    
    79   40  106 1    
    80   41  107 1    
    81   41  108 1    
    82   41  109 1    
    83   42   43 2    
    84   42   44 am   BACKBONE|DICT|INTERRES
    85   44   45 1    
    86   44  110 1    
    87   45   46 1    
    88   45   47 1    
    89   45  111 1    
    90   46  112 1    
    91   46  113 1    
    92   46  114 1    
    93   47   48 2    
    94   47   49 am   BACKBONE|DICT|INTERRES
    95   49   50 1    
    96   49  115 1    
    97   50   51 1    
    98   50   52 1    
    99   50  116 1    
   100   51  117 1    
   101   51  118 1    
   102   51  119 1    
   103   52   53 2    
   104   52   54 am   BACKBONE|DICT|INTERRES
   105   54   55 1    
   106   54  120 1    
   107   55   56 1    
   108   55   57 1    
   109   55  121 1    
   110   56  122 1    
   111   56  123 1    
   112   56  124 1    
   113   57   58 2    
   114   57   59 am   BACKBONE|DICT|INTERRES
   115   59   60 1    
   116   59  125 1    
   117   60   61 1    
   118   60   62 1    
   119   60  126 1    
   120   61  127 1    
   121   61  128 1    
   122   61  129 1    
   123   62   63 2    
   124   62   64 am   BACKBONE|DICT|INTERRES
   125   64   65 1    
   126   64  130 1    
   127   65   66 1    
   128   65   69 1    
   129   65  131 1    
   130   66   67 am   BACKBONE|DICT|INTERRES
   131   66   68 2    
   132   67  132 1    
   133   67  133 1    
   134   69   70 1    
   135   69  134 1    
   136   69  135 1    
   137   70   71 1    
   138   71  136 1    
   139   71  137 1    
@<TRIPOS>SUBSTRUCTURE
     1 UNK         1 GROUP             0       ****    0 ROOT    
