@<TRIPOS>MOLECULE
3R137
137   139    1
SMALL
USER_CHARGES


@<TRIPOS>ATOM
      1 CA         23.4243   -5.6722   -2.0024 C.3       0 UNK        -0.2020 
      2 C          24.6848   -5.0138   -1.4628 C.2       0 UNK         0.4855 
      3 O          24.6894   -4.5347   -0.3284 O.2       0 UNK        -0.5197 
      4 N          25.7533   -4.9703   -2.2697 N.am      1 UNK        -0.4892 
      5 CA         27.0500   -4.3643   -1.9393 C.3       1 UNK         0.0835 
      6 C6         28.1863   -4.9780   -2.8098 C.3       12 UNK        -0.0855 
      7 S7         29.7279   -5.3462   -1.9039 S.3       12 UNK        -0.2931 
      8 C8         30.2888   -3.7160   -1.2950 C.3       12 UNK         0.0378 
      9 C9         30.6318   -2.6608   -2.3499 C.ar      12 UNK        -0.0802 
     10 C10        30.8237   -2.9575   -3.7060 C.ar      12 UNK        -0.0944 
     11 C11        31.1298   -1.9465   -4.6228 C.ar      12 UNK        -0.0787 
     12 C12        31.2742   -0.6301   -4.1757 C.ar      12 UNK        -0.0862 
     13 C13        31.0873   -0.3170   -2.8263 C.ar      12 UNK        -0.0733 
     14 C14        30.7692   -1.3364   -1.9247 C.ar      12 UNK        -0.0832 
     15 C15        31.2116    1.1186   -2.3253 C.3       12 UNK         0.0240 
     16 S16        30.1514    2.3139   -3.2108 S.3       12 UNK        -0.2522 
     17 C17        28.5462    1.4527   -3.3473 C.3       12 UNK        -0.0967 
     18 CA         28.1611    1.2502   -4.8376 C.3       5 UNK         0.0660 
     19 N          27.5438   -0.0528   -5.0940 N.am      5 UNK        -0.4015 
     20 C          27.2720   -0.5361   -6.3154 C.2       4 UNK         0.4946 
     21 O          27.6153    0.0112   -7.3635 O.2       4 UNK        -0.5353 
     22 CA         26.4311   -1.8199   -6.3811 C.3       4 UNK         0.0277 
     23 CB         27.3285   -3.0651   -6.3212 C.3       4 UNK        -0.1981 
     24 N          25.4301   -1.8622   -5.3108 N.am      4 UNK        -0.4209 
     25 C          24.3251   -1.1006   -5.2904 C.2       3 UNK         0.4942 
     26 O          24.0111   -0.3350   -6.2001 O.2       3 UNK        -0.5208 
     27 CA         23.4398   -1.1704   -4.0329 C.3       3 UNK         0.0250 
     28 CB         22.4512   -2.3428   -4.1352 C.3       3 UNK        -0.1990 
     29 N          24.2088   -1.2887   -2.7927 N.am      3 UNK        -0.4232 
     30 C          25.0626   -0.3663   -2.3246 C.2       2 UNK         0.4993 
     31 O          25.2439    0.7303   -2.8519 O.2       2 UNK        -0.5286 
     32 CA         25.9124   -0.7692   -1.1055 C.3       2 UNK         0.0209 
     33 CB         25.1943   -0.3995    0.2012 C.3       2 UNK        -0.1931 
     34 N          26.2567   -2.1970   -1.0911 N.am      2 UNK        -0.4546 
     35 C          26.9421   -2.8261   -2.0561 C.2       1 UNK         0.5154 
     36 O          27.3766   -2.2398   -3.0490 O.2       1 UNK        -0.5181 
     37 C          27.2832    2.4057   -5.3621 C.2       5 UNK         0.5014 
     38 O          27.7838    3.2684   -6.0836 O.2       5 UNK        -0.5248 
     39 N          25.9815    2.3728   -5.0368 N.am      6 UNK        -0.4434 
     40 CA         24.9688    3.3214   -5.5134 C.3       6 UNK         0.0363 
     41 CB         23.6345    3.0500   -4.8013 C.3       6 UNK        -0.1936 
     42 C          24.7829    3.3014   -7.0419 C.2       6 UNK         0.5081 
     43 O          24.5873    4.3592   -7.6405 O.2       6 UNK        -0.5248 
     44 N          24.8853    2.1117   -7.6506 N.am      7 UNK        -0.4718 
     45 CA         24.8872    1.9075   -9.1034 C.3       7 UNK         0.0273 
     46 CB         24.5696    0.4328   -9.4010 C.3       7 UNK        -0.1935 
     47 C          26.2047    2.3216   -9.7914 C.2       7 UNK         0.5018 
     48 O          26.2469    2.3378  -11.0224 O.2       7 UNK        -0.5186 
     49 N          27.2428    2.6389   -9.0025 N.am      8 UNK        -0.4240 
     50 CA         28.5971    3.0249   -9.4066 C.3       8 UNK         0.0235 
     51 CB         28.5883    4.3718  -10.1618 C.3       8 UNK        -0.2000 
     52 C          29.3404    1.9056  -10.1589 C.2       8 UNK         0.4941 
     53 O          29.9815    2.1710  -11.1790 O.2       8 UNK        -0.5273 
     54 N          29.2521    0.6718   -9.6399 N.am      9 UNK        -0.4262 
     55 CA         30.0147   -0.4824  -10.1228 C.3       9 UNK         0.0264 
     56 CB         29.4888   -1.7572   -9.4474 C.3       9 UNK        -0.1955 
     57 C          31.5245   -0.3093   -9.8721 C.2       9 UNK         0.5031 
     58 O          31.9204    0.2776   -8.8605 O.2       9 UNK        -0.5390 
     59 N          32.3412   -0.8287  -10.7966 N.am      10 UNK        -0.4204 
     60 CA         33.7952   -0.6461  -10.8552 C.3       10 UNK         0.0237 
     61 CB         34.2635   -0.8926  -12.3027 C.3       10 UNK        -0.1985 
     62 C          34.5780   -1.4909   -9.8275 C.2       10 UNK         0.4970 
     63 O          35.4716   -2.2492  -10.2099 O.2       10 UNK        -0.4914 
     64 N          34.2474   -1.3332   -8.5414 N.am      11 UNK        -0.4285 
     65 CA         34.9850   -1.9221   -7.4099 C.3       11 UNK         0.1007 
     66 C          36.2976   -1.1671   -7.0463 C.2       11 UNK         0.5703 
     67 N          36.5583    0.0205   -7.5814 N.am      11 UNK        -0.7361 
     68 O          37.1036   -1.6767   -6.2712 O.2       11 UNK        -0.4986 
     69 C69        34.0852   -2.1036   -6.1611 C.3       12 UNK        -0.0947 
     70 S70        32.7323   -3.2889   -6.4560 S.3       12 UNK        -0.2240 
     71 C71        31.2670   -2.2739   -6.1024 C.3       12 UNK         0.0194 
     72 H72        23.1641   -6.5369   -1.3924 H         1 UNK         0.0906 
     73 H73        22.5907   -4.9711   -1.9707 H         1 UNK         0.0906 
     74 H74        23.5462   -6.0078   -3.0321 H         1 UNK         0.0906 
     75 H75        25.6846   -5.3718   -3.1945 H         1 UNK         0.3140 
     76 H76        27.2625   -4.5958   -0.8929 H         1 UNK         0.1085 
     77 H77        27.8648   -5.9411   -3.2097 H         1 UNK         0.0836 
     78 H78        28.4147   -4.3875   -3.6952 H         1 UNK         0.0836 
     79 H79        31.1788   -3.8797   -0.6860 H         1 UNK         0.0731 
     80 H80        29.5311   -3.3215   -0.6170 H         1 UNK         0.0731 
     81 H81        30.7323   -3.9726   -4.0638 H         1 UNK         0.1312 
     82 H82        31.5090    0.1569   -4.8793 H         1 UNK         0.1406 
     83 H83        30.6237   -1.0975   -0.8797 H         1 UNK         0.1631 
     84 H84        32.2509    1.4360   -2.4183 H         1 UNK         0.0717 
     85 H85        30.9694    1.1771   -1.2631 H         1 UNK         0.0717 
     86 H86        28.6024    0.4940   -2.8319 H         1 UNK         0.0934 
     87 H87        27.7918    2.0188   -2.7968 H         1 UNK         0.0934 
     88 H88        29.0735    1.2506   -5.4387 H         1 UNK         0.0739 
     89 H89        27.2957   -0.6164   -4.2879 H         1 UNK         0.3093 
     90 H90        25.9041   -1.8324   -7.3370 H         1 UNK         0.0818 
     91 H91        28.0156   -3.0275   -5.4770 H         1 UNK         0.0819 
     92 H92        26.7430   -3.9812   -6.2442 H         1 UNK         0.0819 
     93 H93        27.9345   -3.1455   -7.2235 H         1 UNK         0.0819 
     94 H94        25.6659   -2.4078   -4.4937 H         1 UNK         0.3041 
     95 H95        22.8669   -0.2421   -3.9805 H         1 UNK         0.0784 
     96 H96        21.8432   -2.2606   -5.0374 H         1 UNK         0.0793 
     97 H97        22.9638   -3.3047   -4.1753 H         1 UNK         0.0793 
     98 H98        21.7667   -2.3610   -3.2868 H         1 UNK         0.0793 
     99 H99        24.1215   -2.1533   -2.2798 H         1 UNK         0.3024 
    100 H100       26.8448   -0.2033   -1.1585 H         1 UNK         0.1171 
    101 H101       24.9398    0.6614    0.2199 H         1 UNK         0.0786 
    102 H102       25.8249   -0.5948    1.0688 H         1 UNK         0.0786 
    103 H103       24.2673   -0.9605    0.3267 H         1 UNK         0.0786 
    104 H104       25.8418   -2.7671   -0.3616 H         1 UNK         0.2977 
    105 H105       25.6644    1.6621   -4.3785 H         1 UNK         0.3127 
    106 H106       25.3048    4.3229   -5.2370 H         1 UNK         0.0770 
    107 H107       23.2495    2.0564   -5.0320 H         1 UNK         0.0814 
    108 H108       22.8761    3.7726   -5.1052 H         1 UNK         0.0814 
    109 H109       23.7395    3.1246   -3.7187 H         1 UNK         0.0814 
    110 H110       24.9602    1.2781   -7.0763 H         1 UNK         0.2983 
    111 H111       24.0932    2.5207   -9.5351 H         1 UNK         0.0947 
    112 H112       24.4861    0.2586  -10.4746 H         1 UNK         0.0806 
    113 H113       23.6248    0.1291   -8.9498 H         1 UNK         0.0806 
    114 H114       25.3506   -0.2278   -9.0249 H         1 UNK         0.0806 
    115 H115       27.1035    2.5748   -8.0006 H         1 UNK         0.3000 
    116 H116       29.1532    3.1769   -8.4803 H         1 UNK         0.0850 
    117 H117       29.6048    4.7226  -10.3444 H         1 UNK         0.0810 
    118 H118       28.0780    5.1444   -9.5867 H         1 UNK         0.0810 
    119 H119       28.0945    4.2920  -11.1306 H         1 UNK         0.0810 
    120 H120       28.6935    0.5283   -8.7999 H         1 UNK         0.3040 
    121 H121       29.8464   -0.5662  -11.1986 H         1 UNK         0.0766 
    122 H122       28.4393   -1.9278   -9.6880 H         1 UNK         0.0812 
    123 H123       29.5728   -1.6925   -8.3642 H         1 UNK         0.0812 
    124 H124       30.0460   -2.6378   -9.7697 H         1 UNK         0.0812 
    125 H125       31.9301   -1.3386  -11.5656 H         1 UNK         0.3205 
    126 H126       34.0104    0.3988  -10.6209 H         1 UNK         0.0754 
    127 H127       35.3334   -0.7059  -12.4069 H         1 UNK         0.0769 
    128 H128       33.7550   -0.2296  -13.0033 H         1 UNK         0.0769 
    129 H129       34.0790   -1.9205  -12.6179 H         1 UNK         0.0769 
    130 H130       33.4791   -0.7056   -8.3211 H         1 UNK         0.2981 
    131 H131       35.3085   -2.9199   -7.7132 H         1 UNK         0.0541 
    132 H132       35.9046    0.4533   -8.2131 H         1 UNK         0.3459 
    133 H133       37.4155    0.4922   -7.3396 H         1 UNK         0.3459 
    134 H134       34.6618   -2.4871   -5.3174 H         1 UNK         0.0612 
    135 H135       33.6832   -1.1410   -5.8414 H         1 UNK         0.0612 
    136 H136       30.3823   -2.8235   -6.4236 H         1 UNK         0.0624 
    137 H137       31.3032   -1.3642   -6.7032 H         1 UNK         0.0624 
@<TRIPOS>BOND
     1    1    2 1    
     2    1   72 1    
     3    1   73 1    
     4    1   74 1    
     5    2    3 2    
     6    2    4 am   BACKBONE|DICT|INTERRES
     7    4    5 1    
     8    4   75 1    
     9    5    6 1    
    10    5   35 1    
    11    5   76 1    
    12    6    7 1    
    13    6   77 1    
    14    6   78 1    
    15    7    8 1    
    16    8    9 1    
    17    8   79 1    
    18    8   80 1    
    19    9   10 ar   
    20    9   14 ar   
    21   10   11 ar   
    22   10   81 1    
    23   11   12 ar   
    24   11   71 1    
    25   12   13 ar   
    26   12   82 1    
    27   13   14 ar   
    28   13   15 1    
    29   14   83 1    
    30   15   16 1    
    31   15   84 1    
    32   15   85 1    
    33   16   17 1    
    34   17   18 1    
    35   17   86 1    
    36   17   87 1    
    37   18   19 1    
    38   18   37 1    
    39   18   88 1    
    40   19   20 am   BACKBONE|DICT|INTERRES
    41   19   89 1    
    42   20   21 2    
    43   20   22 1    
    44   22   23 1    
    45   22   24 1    
    46   22   90 1    
    47   23   91 1    
    48   23   92 1    
    49   23   93 1    
    50   24   25 am   BACKBONE|DICT|INTERRES
    51   24   94 1    
    52   25   26 2    
    53   25   27 1    
    54   27   28 1    
    55   27   29 1    
    56   27   95 1    
    57   28   96 1    
    58   28   97 1    
    59   28   98 1    
    60   29   30 am   BACKBONE|DICT|INTERRES
    61   29   99 1    
    62   30   31 2    
    63   30   32 1    
    64   32   33 1    
    65   32   34 1    
    66   32  100 1    
    67   33  101 1    
    68   33  102 1    
    69   33  103 1    
    70   34   35 am   BACKBONE|DICT|INTERRES
    71   34  104 1    
    72   35   36 2    
    73   37   38 2    
    74   37   39 am   BACKBONE|DICT|INTERRES
    75   39   40 1    
    76   39  105 1    
    77   40   41 1    
    78   40   42 1    
    79   40  106 1    
    80   41  107 1    
    81   41  108 1    
    82   41  109 1    
    83   42   43 2    
    84   42   44 am   BACKBONE|DICT|INTERRES
    85   44   45 1    
    86   44  110 1    
    87   45   46 1    
    88   45   47 1    
    89   45  111 1    
    90   46  112 1    
    91   46  113 1    
    92   46  114 1    
    93   47   48 2    
    94   47   49 am   BACKBONE|DICT|INTERRES
    95   49   50 1    
    96   49  115 1    
    97   50   51 1    
    98   50   52 1    
    99   50  116 1    
   100   51  117 1    
   101   51  118 1    
   102   51  119 1    
   103   52   53 2    
   104   52   54 am   BACKBONE|DICT|INTERRES
   105   54   55 1    
   106   54  120 1    
   107   55   56 1    
   108   55   57 1    
   109   55  121 1    
   110   56  122 1    
   111   56  123 1    
   112   56  124 1    
   113   57   58 2    
   114   57   59 am   BACKBONE|DICT|INTERRES
   115   59   60 1    
   116   59  125 1    
   117   60   61 1    
   118   60   62 1    
   119   60  126 1    
   120   61  127 1    
   121   61  128 1    
   122   61  129 1    
   123   62   63 2    
   124   62   64 am   BACKBONE|DICT|INTERRES
   125   64   65 1    
   126   64  130 1    
   127   65   66 1    
   128   65   69 1    
   129   65  131 1    
   130   66   67 am   BACKBONE|DICT|INTERRES
   131   66   68 2    
   132   67  132 1    
   133   67  133 1    
   134   69   70 1    
   135   69  134 1    
   136   69  135 1    
   137   70   71 1    
   138   71  136 1    
   139   71  137 1    
@<TRIPOS>SUBSTRUCTURE
     1 UNK         1 GROUP             0       ****    0 ROOT    
