@<TRIPOS>MOLECULE
3R137
137   139    1
SMALL
USER_CHARGES


@<TRIPOS>ATOM
      1 CA         23.8768   -4.7876    0.7617 C.3       0 UNK        -0.2020 
      2 C          25.0013   -3.7632    0.7509 C.2       0 UNK         0.4855 
      3 O          24.7429   -2.5684    0.9005 O.2       0 UNK        -0.5197 
      4 N          26.2481   -4.2200    0.5822 N.am      1 UNK        -0.4892 
      5 CA         27.4379   -3.3751    0.4407 C.3       1 UNK         0.0835 
      6 C6         28.7484   -4.1614    0.7046 C.3       12 UNK        -0.0855 
      7 S7         28.8973   -5.7263   -0.2297 S.3       12 UNK        -0.2931 
      8 C8         30.5707   -5.5901   -0.9359 C.3       12 UNK         0.0378 
      9 C9         30.6227   -4.6999   -2.1710 C.ar      12 UNK        -0.0802 
     10 C10        31.3688   -3.5143   -2.1630 C.ar      12 UNK        -0.0944 
     11 C11        31.4874   -2.7482   -3.3272 C.ar      12 UNK        -0.0787 
     12 C12        30.8607   -3.1789   -4.4963 C.ar      12 UNK        -0.0862 
     13 C13        30.0752   -4.3341   -4.5112 C.ar      12 UNK        -0.0733 
     14 C14        29.9652   -5.0942   -3.3431 C.ar      12 UNK        -0.0832 
     15 C15        29.3696   -4.7667   -5.7929 C.3       12 UNK         0.0240 
     16 S16        27.7445   -3.9579   -5.9982 S.3       12 UNK        -0.2522 
     17 C17        28.2416   -2.2145   -6.1873 C.3       12 UNK        -0.0967 
     18 CA         27.4060   -1.3930   -7.1881 C.3       5 UNK         0.0660 
     19 N          25.9832   -1.4145   -6.8587 N.am      5 UNK        -0.4015 
     20 C          25.0084   -0.8054   -7.5455 C.2       4 UNK         0.4946 
     21 O          25.1880   -0.2216   -8.6147 O.2       4 UNK        -0.5353 
     22 CA         23.6164   -0.7776   -6.8841 C.3       4 UNK         0.0277 
     23 CB         22.7350   -1.9046   -7.4440 C.3       4 UNK        -0.1981 
     24 N          23.6558   -0.8669   -5.4149 N.am      4 UNK        -0.4209 
     25 C          24.3095   -0.0143   -4.6092 C.2       3 UNK         0.4942 
     26 O          24.9213    0.9672   -5.0320 O.2       3 UNK        -0.5208 
     27 CA         24.3538   -0.3356   -3.1049 C.3       3 UNK         0.0250 
     28 CB         23.3801   -1.4498   -2.6677 C.3       3 UNK        -0.1990 
     29 N          25.7139   -0.7298   -2.7370 N.am      3 UNK        -0.4232 
     30 C          26.7113    0.0968   -2.3984 C.2       2 UNK         0.4993 
     31 O          26.5793    1.3147   -2.2698 O.2       2 UNK        -0.5286 
     32 CA         28.0777   -0.5657   -2.1185 C.3       2 UNK         0.0209 
     33 CB         29.2079    0.4610   -1.9160 C.3       2 UNK        -0.1931 
     34 N          28.0230   -1.4443   -0.9484 N.am      2 UNK        -0.4546 
     35 C          27.4511   -2.6552   -0.9233 C.2       1 UNK         0.5154 
     36 O          26.9385   -3.1842   -1.9150 O.2       1 UNK        -0.5181 
     37 C          27.9997    0.0319   -7.2620 C.2       5 UNK         0.5014 
     38 O          28.9346    0.2397   -8.0360 O.2       5 UNK        -0.5248 
     39 N          27.4806    0.9795   -6.4635 N.am      6 UNK        -0.4434 
     40 CA         27.9234    2.3763   -6.4735 C.3       6 UNK         0.0363 
     41 CB         27.5477    3.0629   -5.1520 C.3       6 UNK        -0.1936 
     42 C          27.3507    3.1509   -7.6691 C.2       6 UNK         0.5081 
     43 O          28.0371    4.0225   -8.2001 O.2       6 UNK        -0.5248 
     44 N          26.1327    2.7950   -8.1048 N.am      7 UNK        -0.4718 
     45 CA         25.5141    3.3122   -9.3297 C.3       7 UNK         0.0273 
     46 CB         24.0116    2.9880   -9.3366 C.3       7 UNK        -0.1935 
     47 C          26.2071    2.7658  -10.5898 C.2       7 UNK         0.5018 
     48 O          26.3968    3.5123  -11.5502 O.2       7 UNK        -0.5186 
     49 N          26.6169    1.4895  -10.5408 N.am      8 UNK        -0.4240 
     50 CA         27.4630    0.8411  -11.5482 C.3       8 UNK         0.0235 
     51 CB         27.4116   -0.6807  -11.3361 C.3       8 UNK        -0.2000 
     52 C          28.9264    1.3308  -11.5333 C.2       8 UNK         0.4941 
     53 O          29.6321    1.1214  -12.5202 O.2       8 UNK        -0.5273 
     54 N          29.3499    1.9527  -10.4219 N.am      9 UNK        -0.4262 
     55 CA         30.6952    2.4486  -10.1104 C.3       9 UNK         0.0264 
     56 CB         31.0818    3.6174  -11.0410 C.3       9 UNK        -0.1955 
     57 C          31.7465    1.3224  -10.0751 C.2       9 UNK         0.5031 
     58 O          32.8288    1.4682  -10.6480 O.2       9 UNK        -0.5390 
     59 N          31.4013    0.2085   -9.4128 N.am      10 UNK        -0.4204 
     60 CA         32.2486   -0.9826   -9.2987 C.3       10 UNK         0.0237 
     61 CB         31.4101   -2.1675   -8.7972 C.3       10 UNK        -0.1985 
     62 C          33.4747   -0.7690   -8.3937 C.2       10 UNK         0.4970 
     63 O          34.5537   -1.2643   -8.7228 O.2       10 UNK        -0.4914 
     64 N          33.2888   -0.0380   -7.2876 N.am      11 UNK        -0.4285 
     65 CA         34.3605    0.3910   -6.3775 C.3       11 UNK         0.1007 
     66 C          34.7355    1.8653   -6.6720 C.2       11 UNK         0.5703 
     67 N          36.0185    2.2010   -6.6276 N.am      11 UNK        -0.7361 
     68 O          33.8709    2.7129   -6.9036 O.2       11 UNK        -0.4986 
     69 C69        33.9719    0.2119   -4.8852 C.3       12 UNK        -0.0947 
     70 S70        33.7197   -1.5409   -4.4409 S.3       12 UNK        -0.2240 
     71 C71        32.2671   -1.4413   -3.3463 C.3       12 UNK         0.0194 
     72 H72        24.2464   -5.8010    0.6050 H         1 UNK         0.0906 
     73 H73        23.1587   -4.5635   -0.0267 H         1 UNK         0.0906 
     74 H74        23.3541   -4.7608    1.7172 H         1 UNK         0.0906 
     75 H75        26.4090   -5.2052    0.4225 H         1 UNK         0.3140 
     76 H76        27.3690   -2.5995    1.2075 H         1 UNK         0.1085 
     77 H77        29.6183   -3.5289    0.5163 H         1 UNK         0.0836 
     78 H78        28.8030   -4.4144    1.7646 H         1 UNK         0.0836 
     79 H79        31.2642   -5.2424   -0.1684 H         1 UNK         0.0731 
     80 H80        30.9094   -6.5890   -1.2147 H         1 UNK         0.0731 
     81 H81        31.8696   -3.1970   -1.2585 H         1 UNK         0.1312 
     82 H82        30.9988   -2.5990   -5.3951 H         1 UNK         0.1406 
     83 H83        29.3767   -6.0019   -3.3459 H         1 UNK         0.1631 
     84 H84        29.2229   -5.8480   -5.7898 H         1 UNK         0.0717 
     85 H85        29.9972   -4.5513   -6.6594 H         1 UNK         0.0717 
     86 H86        28.2387   -1.7538   -5.1988 H         1 UNK         0.0934 
     87 H87        29.2700   -2.1997   -6.5343 H         1 UNK         0.0934 
     88 H88        27.5121   -1.8435   -8.1767 H         1 UNK         0.0739 
     89 H89        25.7351   -1.9014   -6.0107 H         1 UNK         0.3093 
     90 H90        23.1575    0.1791   -7.1426 H         1 UNK         0.0818 
     91 H91        21.7165   -1.8408   -7.0606 H         1 UNK         0.0819 
     92 H92        22.6727   -1.8462   -8.5318 H         1 UNK         0.0819 
     93 H93        23.1291   -2.8902   -7.1929 H         1 UNK         0.0819 
     94 H94        23.1731   -1.6483   -4.9945 H         1 UNK         0.3041 
     95 H95        24.0827    0.5785   -2.5722 H         1 UNK         0.0784 
     96 H96        22.3505   -1.2040   -2.9319 H         1 UNK         0.0793 
     97 H97        23.6244   -2.4148   -3.1142 H         1 UNK         0.0793 
     98 H98        23.4054   -1.5802   -1.5851 H         1 UNK         0.0793 
     99 H99        25.9221   -1.7249   -2.7367 H         1 UNK         0.3024 
    100 H100       28.3372   -1.1719   -2.9880 H         1 UNK         0.1171 
    101 H101       29.3315    1.0848   -2.8019 H         1 UNK         0.0786 
    102 H102       30.1625   -0.0313   -1.7314 H         1 UNK         0.0786 
    103 H103       29.0074    1.1244   -1.0736 H         1 UNK         0.0786 
    104 H104       28.3947   -1.0627   -0.0902 H         1 UNK         0.2977 
    105 H105       26.6762    0.7699   -5.8780 H         1 UNK         0.3127 
    106 H106       29.0125    2.3948   -6.5582 H         1 UNK         0.0770 
    107 H107       26.4685    3.0966   -5.0011 H         1 UNK         0.0814 
    108 H108       27.9098    4.0915   -5.1317 H         1 UNK         0.0814 
    109 H109       27.9889    2.5490   -4.2989 H         1 UNK         0.0814 
    110 H110       25.6426    2.0551   -7.6215 H         1 UNK         0.2983 
    111 H111       25.6263    4.3989   -9.3355 H         1 UNK         0.0947 
    112 H112       23.5285    3.4117  -10.2180 H         1 UNK         0.0806 
    113 H113       23.5118    3.4051   -8.4622 H         1 UNK         0.0806 
    114 H114       23.8242    1.9143   -9.3501 H         1 UNK         0.0806 
    115 H115       26.3249    0.9226   -9.7490 H         1 UNK         0.3000 
    116 H116       27.0505    1.0660  -12.5340 H         1 UNK         0.0850 
    117 H117       27.9613   -1.2025  -12.1206 H         1 UNK         0.0810 
    118 H118       26.3868   -1.0522  -11.3546 H         1 UNK         0.0810 
    119 H119       27.8561   -0.9679  -10.3834 H         1 UNK         0.0810 
    120 H120       28.6856    2.0267   -9.6641 H         1 UNK         0.3040 
    121 H121       30.6431    2.8437   -9.0947 H         1 UNK         0.0766 
    122 H122       31.1987    3.2917  -12.0749 H         1 UNK         0.0812 
    123 H123       30.3286    4.4050  -11.0196 H         1 UNK         0.0812 
    124 H124       32.0274    4.0644  -10.7322 H         1 UNK         0.0812 
    125 H125       30.4870    0.1783   -8.9603 H         1 UNK         0.3205 
    126 H126       32.6117   -1.2273  -10.2993 H         1 UNK         0.0754 
    127 H127       31.9889   -3.0919   -8.8203 H         1 UNK         0.0769 
    128 H128       30.5226   -2.3218   -9.4116 H         1 UNK         0.0769 
    129 H129       31.0893   -2.0125   -7.7696 H         1 UNK         0.0769 
    130 H130       32.3839    0.3779   -7.1271 H         1 UNK         0.2981 
    131 H131       35.2501   -0.2170   -6.5536 H         1 UNK         0.0541 
    132 H132       36.7338    1.5161   -6.4271 H         1 UNK         0.3459 
    133 H133       36.2779    3.1592   -6.8033 H         1 UNK         0.3459 
    134 H134       33.0763    0.7917   -4.6562 H         1 UNK         0.0612 
    135 H135       34.7596    0.5995   -4.2365 H         1 UNK         0.0612 
    136 H136       32.5917   -1.1601   -2.3436 H         1 UNK         0.0624 
    137 H137       31.5972   -0.6532   -3.6915 H         1 UNK         0.0624 
@<TRIPOS>BOND
     1    1    2 1    
     2    1   72 1    
     3    1   73 1    
     4    1   74 1    
     5    2    3 2    
     6    2    4 am   BACKBONE|DICT|INTERRES
     7    4    5 1    
     8    4   75 1    
     9    5    6 1    
    10    5   35 1    
    11    5   76 1    
    12    6    7 1    
    13    6   77 1    
    14    6   78 1    
    15    7    8 1    
    16    8    9 1    
    17    8   79 1    
    18    8   80 1    
    19    9   10 ar   
    20    9   14 ar   
    21   10   11 ar   
    22   10   81 1    
    23   11   12 ar   
    24   11   71 1    
    25   12   13 ar   
    26   12   82 1    
    27   13   14 ar   
    28   13   15 1    
    29   14   83 1    
    30   15   16 1    
    31   15   84 1    
    32   15   85 1    
    33   16   17 1    
    34   17   18 1    
    35   17   86 1    
    36   17   87 1    
    37   18   19 1    
    38   18   37 1    
    39   18   88 1    
    40   19   20 am   BACKBONE|DICT|INTERRES
    41   19   89 1    
    42   20   21 2    
    43   20   22 1    
    44   22   23 1    
    45   22   24 1    
    46   22   90 1    
    47   23   91 1    
    48   23   92 1    
    49   23   93 1    
    50   24   25 am   BACKBONE|DICT|INTERRES
    51   24   94 1    
    52   25   26 2    
    53   25   27 1    
    54   27   28 1    
    55   27   29 1    
    56   27   95 1    
    57   28   96 1    
    58   28   97 1    
    59   28   98 1    
    60   29   30 am   BACKBONE|DICT|INTERRES
    61   29   99 1    
    62   30   31 2    
    63   30   32 1    
    64   32   33 1    
    65   32   34 1    
    66   32  100 1    
    67   33  101 1    
    68   33  102 1    
    69   33  103 1    
    70   34   35 am   BACKBONE|DICT|INTERRES
    71   34  104 1    
    72   35   36 2    
    73   37   38 2    
    74   37   39 am   BACKBONE|DICT|INTERRES
    75   39   40 1    
    76   39  105 1    
    77   40   41 1    
    78   40   42 1    
    79   40  106 1    
    80   41  107 1    
    81   41  108 1    
    82   41  109 1    
    83   42   43 2    
    84   42   44 am   BACKBONE|DICT|INTERRES
    85   44   45 1    
    86   44  110 1    
    87   45   46 1    
    88   45   47 1    
    89   45  111 1    
    90   46  112 1    
    91   46  113 1    
    92   46  114 1    
    93   47   48 2    
    94   47   49 am   BACKBONE|DICT|INTERRES
    95   49   50 1    
    96   49  115 1    
    97   50   51 1    
    98   50   52 1    
    99   50  116 1    
   100   51  117 1    
   101   51  118 1    
   102   51  119 1    
   103   52   53 2    
   104   52   54 am   BACKBONE|DICT|INTERRES
   105   54   55 1    
   106   54  120 1    
   107   55   56 1    
   108   55   57 1    
   109   55  121 1    
   110   56  122 1    
   111   56  123 1    
   112   56  124 1    
   113   57   58 2    
   114   57   59 am   BACKBONE|DICT|INTERRES
   115   59   60 1    
   116   59  125 1    
   117   60   61 1    
   118   60   62 1    
   119   60  126 1    
   120   61  127 1    
   121   61  128 1    
   122   61  129 1    
   123   62   63 2    
   124   62   64 am   BACKBONE|DICT|INTERRES
   125   64   65 1    
   126   64  130 1    
   127   65   66 1    
   128   65   69 1    
   129   65  131 1    
   130   66   67 am   BACKBONE|DICT|INTERRES
   131   66   68 2    
   132   67  132 1    
   133   67  133 1    
   134   69   70 1    
   135   69  134 1    
   136   69  135 1    
   137   70   71 1    
   138   71  136 1    
   139   71  137 1    
@<TRIPOS>SUBSTRUCTURE
     1 UNK         1 GROUP             0       ****    0 ROOT    
