@<TRIPOS>MOLECULE
3R137
137   139    1
SMALL
USER_CHARGES


@<TRIPOS>ATOM
      1 CA         23.8999   -1.9476    1.1810 C.3       0 UNK        -0.2020 
      2 C          24.6837   -1.1894    0.1206 C.2       0 UNK         0.4855 
      3 O          24.4119   -0.0131   -0.1178 O.2       0 UNK        -0.5197 
      4 N          25.6499   -1.8556   -0.5254 N.am      1 UNK        -0.4892 
      5 CA         26.5284   -1.2740   -1.5523 C.3       1 UNK         0.0835 
      6 C6         27.8772   -2.0260   -1.6585 C.3       12 UNK        -0.0855 
      7 S7         28.8115   -1.9547   -0.0954 S.3       12 UNK        -0.2931 
      8 C8         30.2369   -3.0263   -0.4772 C.3       12 UNK         0.0378 
      9 C9         31.1467   -2.4785   -1.5744 C.ar      12 UNK        -0.0802 
     10 C10        31.6262   -3.3383   -2.5682 C.ar      12 UNK        -0.0944 
     11 C11        32.4934   -2.8783   -3.5652 C.ar      12 UNK        -0.0787 
     12 C12        32.8933   -1.5353   -3.5434 C.ar      12 UNK        -0.0862 
     13 C13        32.4087   -0.6577   -2.5693 C.ar      12 UNK        -0.0733 
     14 C14        31.5429   -1.1361   -1.5827 C.ar      12 UNK        -0.0832 
     15 C15        32.8551    0.7976   -2.5704 C.3       12 UNK         0.0240 
     16 S16        32.2831    1.6944   -4.0499 S.3       12 UNK        -0.2522 
     17 C17        30.5840    2.1834   -3.5980 C.3       12 UNK        -0.0967 
     18 CA         29.6010    1.9824   -4.7787 C.3       5 UNK         0.0660 
     19 N          29.3979    0.5627   -5.0733 N.am      5 UNK        -0.4015 
     20 C          28.6713    0.0396   -6.0696 C.2       4 UNK         0.4946 
     21 O          27.9141    0.6939   -6.7894 O.2       4 UNK        -0.5353 
     22 CA         28.8343   -1.4655   -6.3251 C.3       4 UNK         0.0277 
     23 CB         29.9009   -2.1473   -5.4485 C.3       4 UNK        -0.1981 
     24 N          27.5575   -2.1436   -6.1464 N.am      4 UNK        -0.4209 
     25 C          27.1873   -3.2465   -6.8125 C.2       3 UNK         0.4942 
     26 O          27.8542   -3.7427   -7.7217 O.2       3 UNK        -0.5208 
     27 CA         25.8904   -3.9590   -6.3789 C.3       3 UNK         0.0250 
     28 CB         26.1970   -5.3846   -5.8868 C.3       3 UNK        -0.1990 
     29 N          25.1704   -3.2483   -5.3216 N.am      3 UNK        -0.4232 
     30 C          24.3197   -2.2364   -5.5272 C.2       2 UNK         0.4993 
     31 O          23.9733   -1.8510   -6.6426 O.2       2 UNK        -0.5286 
     32 CA         23.7753   -1.5205   -4.2797 C.3       2 UNK         0.0209 
     33 CB         22.3559   -2.0115   -3.9527 C.3       2 UNK        -0.1931 
     34 N          24.6164   -1.6544   -3.0818 N.am      2 UNK        -0.4546 
     35 C          25.8528   -1.1538   -2.9356 C.2       1 UNK         0.5154 
     36 O          26.4636   -0.5971   -3.8496 O.2       1 UNK        -0.5181 
     37 C          28.3222    2.8214   -4.5757 C.2       5 UNK         0.5014 
     38 O          28.3606    4.0095   -4.8980 O.2       5 UNK        -0.5248 
     39 N          27.2152    2.2378   -4.0877 N.am      6 UNK        -0.4434 
     40 CA         25.9524    2.9735   -3.9140 C.3       6 UNK         0.0363 
     41 CB         25.0411    2.2647   -2.9013 C.3       6 UNK        -0.1936 
     42 C          25.2125    3.2056   -5.2439 C.2       6 UNK         0.5081 
     43 O          24.4497    4.1663   -5.3463 O.2       6 UNK        -0.5248 
     44 N          25.4676    2.3488   -6.2418 N.am      7 UNK        -0.4718 
     45 CA         24.9981    2.5062   -7.6214 C.3       7 UNK         0.0273 
     46 CB         24.6268    1.1191   -8.1715 C.3       7 UNK        -0.1935 
     47 C          26.0563    3.1768   -8.5186 C.2       7 UNK         0.5018 
     48 O          25.7807    3.4082   -9.6964 O.2       7 UNK        -0.5186 
     49 N          27.2465    3.4465   -7.9583 N.am      8 UNK        -0.4240 
     50 CA         28.4714    3.9186   -8.6134 C.3       8 UNK         0.0235 
     51 CB         28.2874    5.3449   -9.1743 C.3       8 UNK        -0.2000 
     52 C          29.0193    2.9235   -9.6582 C.2       8 UNK         0.4941 
     53 O          29.6507    3.3444  -10.6299 O.2       8 UNK        -0.5273 
     54 N          28.7755    1.6237   -9.4434 N.am      9 UNK        -0.4262 
     55 CA         29.2634    0.5368  -10.2889 C.3       9 UNK         0.0264 
     56 CB         28.2395   -0.6105  -10.2692 C.3       9 UNK        -0.1955 
     57 C          30.6340    0.0598   -9.7909 C.2       9 UNK         0.5031 
     58 O          30.8783    0.0464   -8.5820 O.2       9 UNK        -0.5390 
     59 N          31.4952   -0.3718  -10.7198 N.am      10 UNK        -0.4204 
     60 CA         32.8537   -0.8595  -10.4519 C.3       10 UNK         0.0237 
     61 CB         33.7130   -0.6531  -11.7145 C.3       10 UNK        -0.1985 
     62 C          32.8772   -2.3186   -9.9469 C.2       10 UNK         0.4970 
     63 O          33.6321   -3.1378  -10.4751 O.2       10 UNK        -0.4914 
     64 N          32.0495   -2.6097   -8.9360 N.am      11 UNK        -0.4285 
     65 CA         31.8682   -3.9220   -8.2920 C.3       11 UNK         0.1007 
     66 C          31.3497   -5.0267   -9.2659 C.2       11 UNK         0.5703 
     67 N          31.4816   -6.3015   -8.9204 N.am      11 UNK        -0.7361 
     68 O          30.7773   -4.7428  -10.3172 O.2       11 UNK        -0.4986 
     69 C69        33.1087   -4.3444   -7.4445 C.3       12 UNK        -0.0947 
     70 S70        33.5516   -3.0912   -6.1920 S.3       12 UNK        -0.2240 
     71 C71        32.9556   -3.8623   -4.6444 C.3       12 UNK         0.0194 
     72 H72        22.8410   -1.9652    0.9245 H         1 UNK         0.0906 
     73 H73        24.2416   -2.9773    1.2838 H         1 UNK         0.0906 
     74 H74        24.0078   -1.4571    2.1481 H         1 UNK         0.0906 
     75 H75        25.8475   -2.8145   -0.2739 H         1 UNK         0.3140 
     76 H76        26.7549   -0.2476   -1.2538 H         1 UNK         0.1085 
     77 H77        28.5039   -1.5801   -2.4323 H         1 UNK         0.0836 
     78 H78        27.7237   -3.0688   -1.9426 H         1 UNK         0.0836 
     79 H79        29.8646   -4.0175   -0.7413 H         1 UNK         0.0731 
     80 H80        30.8293   -3.1530    0.4298 H         1 UNK         0.0731 
     81 H81        31.3224   -4.3764   -2.5675 H         1 UNK         0.1312 
     82 H82        33.5730   -1.1528   -4.2915 H         1 UNK         0.1406 
     83 H83        31.1834   -0.4670   -0.8126 H         1 UNK         0.1631 
     84 H84        33.9454    0.8269   -2.5479 H         1 UNK         0.0717 
     85 H85        32.5195    1.3189   -1.6725 H         1 UNK         0.0717 
     86 H86        30.2487    1.6284   -2.7196 H         1 UNK         0.0934 
     87 H87        30.6281    3.2323   -3.2963 H         1 UNK         0.0934 
     88 H88        30.0709    2.3977   -5.6733 H         1 UNK         0.0739 
     89 H89        29.9909   -0.0671   -4.5534 H         1 UNK         0.3093 
     90 H90        29.1499   -1.5626   -7.3639 H         1 UNK         0.0818 
     91 H91        30.8844   -1.7151   -5.6351 H         1 UNK         0.0819 
     92 H92        29.9736   -3.2122   -5.6650 H         1 UNK         0.0819 
     93 H93        29.6821   -2.0564   -4.3855 H         1 UNK         0.0819 
     94 H94        26.9425   -1.7381   -5.4482 H         1 UNK         0.3041 
     95 H95        25.2515   -4.0337   -7.2616 H         1 UNK         0.0784 
     96 H96        26.6887   -5.9708   -6.6646 H         1 UNK         0.0793 
     97 H97        26.8565   -5.3793   -5.0180 H         1 UNK         0.0793 
     98 H98        25.2846   -5.9155   -5.6143 H         1 UNK         0.0793 
     99 H99        25.3847   -3.5056   -4.3693 H         1 UNK         0.3024 
    100 H100       23.7193   -0.4598   -4.5329 H         1 UNK         0.1171 
    101 H101       21.9162   -1.4388   -3.1358 H         1 UNK         0.0786 
    102 H102       21.6956   -1.9008   -4.8143 H         1 UNK         0.0786 
    103 H103       22.3479   -3.0646   -3.6691 H         1 UNK         0.0786 
    104 H104       24.1927   -2.0883   -2.2743 H         1 UNK         0.2977 
    105 H105       27.1990    1.2361   -3.9172 H         1 UNK         0.3127 
    106 H106       26.1882    3.9560   -3.4983 H         1 UNK         0.0770 
    107 H107       24.6051    1.3578   -3.3142 H         1 UNK         0.0814 
    108 H108       24.2098    2.9110   -2.6174 H         1 UNK         0.0814 
    109 H109       25.5745    2.0057   -1.9868 H         1 UNK         0.0814 
    110 H110       26.1346    1.5993   -6.0870 H         1 UNK         0.2983 
    111 H111       24.1056    3.1350   -7.6478 H         1 UNK         0.0947 
    112 H112       24.2774    1.1826   -9.2028 H         1 UNK         0.0806 
    113 H113       23.8237    0.6691   -7.5884 H         1 UNK         0.0806 
    114 H114       25.4766    0.4350   -8.1555 H         1 UNK         0.0806 
    115 H115       27.3473    3.2083   -6.9813 H         1 UNK         0.3000 
    116 H116       29.2277    3.9708   -7.8287 H         1 UNK         0.0850 
    117 H117       29.2363    5.7527   -9.5247 H         1 UNK         0.0810 
    118 H118       27.9065    6.0244   -8.4119 H         1 UNK         0.0810 
    119 H119       27.5962    5.3633  -10.0173 H         1 UNK         0.0810 
    120 H120       28.3337    1.3489   -8.5695 H         1 UNK         0.3040 
    121 H121       29.3638    0.8884  -11.3182 H         1 UNK         0.0766 
    122 H122       27.2930   -0.2975  -10.7103 H         1 UNK         0.0812 
    123 H123       28.0299   -0.9558   -9.2573 H         1 UNK         0.0812 
    124 H124       28.5953   -1.4691  -10.8404 H         1 UNK         0.0812 
    125 H125       31.2020   -0.3778  -11.6866 H         1 UNK         0.3205 
    126 H126       33.2899   -0.2491   -9.6578 H         1 UNK         0.0754 
    127 H127       34.7497   -0.9413  -11.5349 H         1 UNK         0.0769 
    128 H128       33.7211    0.3926  -12.0227 H         1 UNK         0.0769 
    129 H129       33.3487   -1.2484  -12.5528 H         1 UNK         0.0769 
    130 H130       31.4818   -1.8511   -8.5745 H         1 UNK         0.2981 
    131 H131       31.0377   -3.7786   -7.6034 H         1 UNK         0.0541 
    132 H132       31.9272   -6.5669   -8.0570 H         1 UNK         0.3459 
    133 H133       31.1282   -7.0127   -9.5410 H         1 UNK         0.3459 
    134 H134       32.9381   -5.2938   -6.9361 H         1 UNK         0.0612 
    135 H135       33.9740   -4.5017   -8.0900 H         1 UNK         0.0612 
    136 H136       32.1222   -4.5234   -4.8864 H         1 UNK         0.0624 
    137 H137       33.7474   -4.4927   -4.2383 H         1 UNK         0.0624 
@<TRIPOS>BOND
     1    1    2 1    
     2    1   72 1    
     3    1   73 1    
     4    1   74 1    
     5    2    3 2    
     6    2    4 am   BACKBONE|DICT|INTERRES
     7    4    5 1    
     8    4   75 1    
     9    5    6 1    
    10    5   35 1    
    11    5   76 1    
    12    6    7 1    
    13    6   77 1    
    14    6   78 1    
    15    7    8 1    
    16    8    9 1    
    17    8   79 1    
    18    8   80 1    
    19    9   10 ar   
    20    9   14 ar   
    21   10   11 ar   
    22   10   81 1    
    23   11   12 ar   
    24   11   71 1    
    25   12   13 ar   
    26   12   82 1    
    27   13   14 ar   
    28   13   15 1    
    29   14   83 1    
    30   15   16 1    
    31   15   84 1    
    32   15   85 1    
    33   16   17 1    
    34   17   18 1    
    35   17   86 1    
    36   17   87 1    
    37   18   19 1    
    38   18   37 1    
    39   18   88 1    
    40   19   20 am   BACKBONE|DICT|INTERRES
    41   19   89 1    
    42   20   21 2    
    43   20   22 1    
    44   22   23 1    
    45   22   24 1    
    46   22   90 1    
    47   23   91 1    
    48   23   92 1    
    49   23   93 1    
    50   24   25 am   BACKBONE|DICT|INTERRES
    51   24   94 1    
    52   25   26 2    
    53   25   27 1    
    54   27   28 1    
    55   27   29 1    
    56   27   95 1    
    57   28   96 1    
    58   28   97 1    
    59   28   98 1    
    60   29   30 am   BACKBONE|DICT|INTERRES
    61   29   99 1    
    62   30   31 2    
    63   30   32 1    
    64   32   33 1    
    65   32   34 1    
    66   32  100 1    
    67   33  101 1    
    68   33  102 1    
    69   33  103 1    
    70   34   35 am   BACKBONE|DICT|INTERRES
    71   34  104 1    
    72   35   36 2    
    73   37   38 2    
    74   37   39 am   BACKBONE|DICT|INTERRES
    75   39   40 1    
    76   39  105 1    
    77   40   41 1    
    78   40   42 1    
    79   40  106 1    
    80   41  107 1    
    81   41  108 1    
    82   41  109 1    
    83   42   43 2    
    84   42   44 am   BACKBONE|DICT|INTERRES
    85   44   45 1    
    86   44  110 1    
    87   45   46 1    
    88   45   47 1    
    89   45  111 1    
    90   46  112 1    
    91   46  113 1    
    92   46  114 1    
    93   47   48 2    
    94   47   49 am   BACKBONE|DICT|INTERRES
    95   49   50 1    
    96   49  115 1    
    97   50   51 1    
    98   50   52 1    
    99   50  116 1    
   100   51  117 1    
   101   51  118 1    
   102   51  119 1    
   103   52   53 2    
   104   52   54 am   BACKBONE|DICT|INTERRES
   105   54   55 1    
   106   54  120 1    
   107   55   56 1    
   108   55   57 1    
   109   55  121 1    
   110   56  122 1    
   111   56  123 1    
   112   56  124 1    
   113   57   58 2    
   114   57   59 am   BACKBONE|DICT|INTERRES
   115   59   60 1    
   116   59  125 1    
   117   60   61 1    
   118   60   62 1    
   119   60  126 1    
   120   61  127 1    
   121   61  128 1    
   122   61  129 1    
   123   62   63 2    
   124   62   64 am   BACKBONE|DICT|INTERRES
   125   64   65 1    
   126   64  130 1    
   127   65   66 1    
   128   65   69 1    
   129   65  131 1    
   130   66   67 am   BACKBONE|DICT|INTERRES
   131   66   68 2    
   132   67  132 1    
   133   67  133 1    
   134   69   70 1    
   135   69  134 1    
   136   69  135 1    
   137   70   71 1    
   138   71  136 1    
   139   71  137 1    
@<TRIPOS>SUBSTRUCTURE
     1 UNK         1 GROUP             0       ****    0 ROOT    
