@<TRIPOS>MOLECULE
3R137
137   139    1
SMALL
USER_CHARGES


@<TRIPOS>ATOM
      1 CA         26.6014   -4.8889    1.8798 C.3       0 UNK        -0.2020 
      2 C          26.4936   -3.3920    1.6309 C.2       0 UNK         0.4855 
      3 O          26.0259   -2.6585    2.5020 O.2       0 UNK        -0.5197 
      4 N          26.9190   -2.9335    0.4463 N.am      1 UNK        -0.4892 
      5 CA         26.8960   -1.5197    0.0409 C.3       1 UNK         0.0835 
      6 C6         27.9201   -1.2240   -1.0822 C.3       12 UNK        -0.0855 
      7 S7         29.6369   -1.4173   -0.4990 S.3       12 UNK        -0.2931 
      8 C8         30.1631   -2.9638   -1.3138 C.3       12 UNK         0.0378 
      9 C9         30.6044   -2.7979   -2.7677 C.ar      12 UNK        -0.0802 
     10 C10        31.3701   -1.6976   -3.1753 C.ar      12 UNK        -0.0944 
     11 C11        31.8381   -1.6043   -4.4887 C.ar      12 UNK        -0.0787 
     12 C12        31.5489   -2.6242   -5.3968 C.ar      12 UNK        -0.0862 
     13 C13        30.7971   -3.7343   -5.0064 C.ar      12 UNK        -0.0733 
     14 C14        30.3184   -3.8089   -3.6935 C.ar      12 UNK        -0.0832 
     15 C15        30.5601   -4.8820   -5.9828 C.3       12 UNK         0.0240 
     16 S16        29.7848   -4.3520   -7.5448 S.3       12 UNK        -0.2522 
     17 C17        28.1479   -3.8216   -6.9580 C.3       12 UNK        -0.0967 
     18 CA         27.5984   -2.5628   -7.6736 C.3       5 UNK         0.0660 
     19 N          26.1553   -2.4793   -7.4354 N.am      5 UNK        -0.4015 
     20 C          25.3096   -1.5350   -7.8609 C.2       4 UNK         0.4946 
     21 O          25.6375   -0.5821   -8.5647 O.2       4 UNK        -0.5353 
     22 CA         23.8548   -1.6404   -7.3687 C.3       4 UNK         0.0277 
     23 CB         23.4451   -3.0688   -6.9432 C.3       4 UNK        -0.1981 
     24 N          23.5553   -0.6957   -6.2847 N.am      4 UNK        -0.4209 
     25 C          24.2348   -0.5087   -5.1413 C.2       3 UNK         0.4942 
     26 O          25.3113   -1.0517   -4.8780 O.2       3 UNK        -0.5208 
     27 CA         23.6273    0.4624   -4.1087 C.3       3 UNK         0.0250 
     28 CB         22.2333    1.0180   -4.4864 C.3       3 UNK        -0.1990 
     29 N          23.5936   -0.1382   -2.7702 N.am      3 UNK        -0.4232 
     30 C          22.9622   -1.2614   -2.3963 C.2       2 UNK         0.4993 
     31 O          22.2722   -1.9494   -3.1517 O.2       2 UNK        -0.5286 
     32 CA         23.1436   -1.6857   -0.9250 C.3       2 UNK         0.0209 
     33 CB         22.3032   -2.9231   -0.5545 C.3       2 UNK        -0.1931 
     34 N          24.5451   -1.9562   -0.5919 N.am      2 UNK        -0.4546 
     35 C          25.4858   -1.0306   -0.3568 C.2       1 UNK         0.5154 
     36 O          25.2707    0.1801   -0.4443 O.2       1 UNK        -0.5181 
     37 C          28.3605   -1.2772   -7.2669 C.2       5 UNK         0.5014 
     38 O          29.2516   -0.8307   -7.9970 O.2       5 UNK        -0.5248 
     39 N          27.9670   -0.6806   -6.1320 N.am      6 UNK        -0.4434 
     40 CA         28.5400    0.5661   -5.6253 C.3       6 UNK         0.0363 
     41 CB         28.3505    0.6325   -4.1048 C.3       6 UNK        -0.1936 
     42 C          27.9453    1.8107   -6.3027 C.2       6 UNK         0.5081 
     43 O          28.6452    2.8154   -6.4162 O.2       6 UNK        -0.5248 
     44 N          26.6891    1.7295   -6.7665 N.am      7 UNK        -0.4718 
     45 CA         26.0186    2.7985   -7.5178 C.3       7 UNK         0.0273 
     46 CB         24.4974    2.5892   -7.4902 C.3       7 UNK        -0.1935 
     47 C          26.5375    2.8947   -8.9613 C.2       7 UNK         0.5018 
     48 O          26.7186    4.0003   -9.4715 O.2       7 UNK        -0.5186 
     49 N          26.8234    1.7337   -9.5674 N.am      8 UNK        -0.4240 
     50 CA         27.5432    1.5879  -10.8354 C.3       8 UNK         0.0235 
     51 CB         27.4049    0.1345  -11.3184 C.3       8 UNK        -0.2000 
     52 C          29.0317    1.9754  -10.7354 C.2       8 UNK         0.4941 
     53 O          29.6622    2.1905  -11.7711 O.2       8 UNK        -0.5273 
     54 N          29.5535    2.0551   -9.5014 N.am      9 UNK        -0.4262 
     55 CA         30.9176    2.4185   -9.1155 C.3       9 UNK         0.0264 
     56 CB         31.2167    3.8906   -9.4697 C.3       9 UNK        -0.1955 
     57 C          31.9633    1.4368   -9.6671 C.2       9 UNK         0.5031 
     58 O          32.9884    1.8635  -10.2035 O.2       9 UNK        -0.5390 
     59 N          31.7062    0.1303   -9.4961 N.am      10 UNK        -0.4204 
     60 CA         32.5888   -0.9560   -9.9460 C.3       10 UNK         0.0237 
     61 CB         31.8810   -2.3004   -9.7321 C.3       10 UNK        -0.1985 
     62 C          33.9845   -0.9622   -9.2871 C.2       10 UNK         0.4970 
     63 O          34.9082   -1.5593   -9.8410 O.2       10 UNK        -0.4914 
     64 N          34.1172   -0.2807   -8.1423 N.am      11 UNK        -0.4285 
     65 CA         35.3893    0.0231   -7.4713 C.3       11 UNK         0.1007 
     66 C          36.2659    1.0784   -8.2107 C.2       11 UNK         0.5703 
     67 N          35.7594    1.8076   -9.1995 N.am      11 UNK        -0.7361 
     68 O          37.4399    1.2324   -7.8820 O.2       11 UNK        -0.4986 
     69 C69        35.1621    0.4354   -5.9917 C.3       12 UNK        -0.0947 
     70 S70        34.4436   -0.9138   -5.0008 S.3       12 UNK        -0.2240 
     71 C71        32.6918   -0.4286   -4.9303 C.3       12 UNK         0.0194 
     72 H72        27.2267   -5.0794    2.7516 H         1 UNK         0.0906 
     73 H73        27.0365   -5.4149    1.0301 H         1 UNK         0.0906 
     74 H74        25.6144   -5.3098    2.0702 H         1 UNK         0.0906 
     75 H75        27.3009   -3.5794   -0.2290 H         1 UNK         0.3140 
     76 H76        27.1779   -0.9183    0.9087 H         1 UNK         0.1085 
     77 H77        27.8212   -0.1899   -1.4168 H         1 UNK         0.0836 
     78 H78        27.7406   -1.8481   -1.9600 H         1 UNK         0.0836 
     79 H79        31.0058   -3.3713   -0.7540 H         1 UNK         0.0731 
     80 H80        29.3617   -3.6992   -1.2329 H         1 UNK         0.0731 
     81 H81        31.6223   -0.9224   -2.4650 H         1 UNK         0.1312 
     82 H82        31.9359   -2.5660   -6.4038 H         1 UNK         0.1406 
     83 H83        29.7539   -4.6769   -3.3803 H         1 UNK         0.1631 
     84 H84        29.9431   -5.6600   -5.5304 H         1 UNK         0.0717 
     85 H85        31.5197   -5.3472   -6.2117 H         1 UNK         0.0717 
     86 H86        27.4810   -4.6689   -7.1275 H         1 UNK         0.0934 
     87 H87        28.1608   -3.6714   -5.8768 H         1 UNK         0.0934 
     88 H88        27.7281   -2.6871   -8.7506 H         1 UNK         0.0739 
     89 H89        25.7717   -3.1866   -6.8265 H         1 UNK         0.3093 
     90 H90        23.2291   -1.3560   -8.2162 H         1 UNK         0.0818 
     91 H91        23.6643   -3.7965   -7.7261 H         1 UNK         0.0819 
     92 H92        23.9478   -3.3917   -6.0306 H         1 UNK         0.0819 
     93 H93        22.3728   -3.1218   -6.7538 H         1 UNK         0.0819 
     94 H94        22.6984   -0.1730   -6.3986 H         1 UNK         0.3041 
     95 H95        24.3164    1.3062   -4.0493 H         1 UNK         0.0784 
     96 H96        22.2578    1.5725   -5.4245 H         1 UNK         0.0793 
     97 H97        21.4878    0.2280   -4.5862 H         1 UNK         0.0793 
     98 H98        21.8730    1.7097   -3.7247 H         1 UNK         0.0793 
     99 H99        24.1866    0.3003   -2.0709 H         1 UNK         0.3024 
    100 H100       22.7927   -0.8535   -0.3097 H         1 UNK         0.1171 
    101 H101       22.3974   -3.1641    0.5046 H         1 UNK         0.0786 
    102 H102       21.2443   -2.7499   -0.7517 H         1 UNK         0.0786 
    103 H103       22.6026   -3.8019   -1.1272 H         1 UNK         0.0786 
    104 H104       24.8147   -2.9265   -0.5219 H         1 UNK         0.2977 
    105 H105       27.1789   -1.0637   -5.6166 H         1 UNK         0.3127 
    106 H106       29.6141    0.5645   -5.8249 H         1 UNK         0.0770 
    107 H107       28.7737    1.5510   -3.6961 H         1 UNK         0.0814 
    108 H108       27.2973    0.6014   -3.8235 H         1 UNK         0.0814 
    109 H109       28.8579   -0.2001   -3.6189 H         1 UNK         0.0814 
    110 H110       26.2057    0.8453   -6.6952 H         1 UNK         0.2983 
    111 H111       26.2349    3.7510   -7.0281 H         1 UNK         0.0947 
    112 H112       24.2060    1.6427   -7.9458 H         1 UNK         0.0806 
    113 H113       23.9866    3.3829   -8.0372 H         1 UNK         0.0806 
    114 H114       24.1196    2.6092   -6.4692 H         1 UNK         0.0806 
    115 H115       26.5399    0.8687   -9.1070 H         1 UNK         0.3000 
    116 H116       27.0780    2.2476  -11.5707 H         1 UNK         0.0850 
    117 H117       27.8985   -0.0082  -12.2807 H         1 UNK         0.0810 
    118 H118       26.3584   -0.1434  -11.4456 H         1 UNK         0.0810 
    119 H119       27.8530   -0.5669  -10.6130 H         1 UNK         0.0810 
    120 H120       28.9356    1.8355   -8.7329 H         1 UNK         0.3040 
    121 H121       30.9604    2.3293   -8.0290 H         1 UNK         0.0766 
    122 H122       31.2358    4.0534  -10.5477 H         1 UNK         0.0812 
    123 H123       32.1875    4.1968   -9.0781 H         1 UNK         0.0812 
    124 H124       30.4694    4.5592   -9.0420 H         1 UNK         0.0812 
    125 H125       30.8392   -0.1457   -9.0395 H         1 UNK         0.3205 
    126 H126       32.7454   -0.8229  -11.0185 H         1 UNK         0.0754 
    127 H127       32.4888   -3.1303  -10.0951 H         1 UNK         0.0769 
    128 H128       30.9277   -2.3393  -10.2599 H         1 UNK         0.0769 
    129 H129       31.6841   -2.4759   -8.6763 H         1 UNK         0.0769 
    130 H130       33.3027    0.1803   -7.7716 H         1 UNK         0.2981 
    131 H131       35.9793   -0.8954   -7.4696 H         1 UNK         0.0541 
    132 H132       34.7929    1.7079   -9.4952 H         1 UNK         0.3459 
    133 H133       36.3517    2.4785   -9.6619 H         1 UNK         0.3459 
    134 H134       34.5306    1.3233   -5.9259 H         1 UNK         0.0612 
    135 H135       36.1090    0.7019   -5.5185 H         1 UNK         0.0612 
    136 H136       32.5757    0.4162   -4.2496 H         1 UNK         0.0624 
    137 H137       32.3547   -0.0891   -5.9101 H         1 UNK         0.0624 
@<TRIPOS>BOND
     1    1    2 1    
     2    1   72 1    
     3    1   73 1    
     4    1   74 1    
     5    2    3 2    
     6    2    4 am   BACKBONE|DICT|INTERRES
     7    4    5 1    
     8    4   75 1    
     9    5    6 1    
    10    5   35 1    
    11    5   76 1    
    12    6    7 1    
    13    6   77 1    
    14    6   78 1    
    15    7    8 1    
    16    8    9 1    
    17    8   79 1    
    18    8   80 1    
    19    9   10 ar   
    20    9   14 ar   
    21   10   11 ar   
    22   10   81 1    
    23   11   12 ar   
    24   11   71 1    
    25   12   13 ar   
    26   12   82 1    
    27   13   14 ar   
    28   13   15 1    
    29   14   83 1    
    30   15   16 1    
    31   15   84 1    
    32   15   85 1    
    33   16   17 1    
    34   17   18 1    
    35   17   86 1    
    36   17   87 1    
    37   18   19 1    
    38   18   37 1    
    39   18   88 1    
    40   19   20 am   BACKBONE|DICT|INTERRES
    41   19   89 1    
    42   20   21 2    
    43   20   22 1    
    44   22   23 1    
    45   22   24 1    
    46   22   90 1    
    47   23   91 1    
    48   23   92 1    
    49   23   93 1    
    50   24   25 am   BACKBONE|DICT|INTERRES
    51   24   94 1    
    52   25   26 2    
    53   25   27 1    
    54   27   28 1    
    55   27   29 1    
    56   27   95 1    
    57   28   96 1    
    58   28   97 1    
    59   28   98 1    
    60   29   30 am   BACKBONE|DICT|INTERRES
    61   29   99 1    
    62   30   31 2    
    63   30   32 1    
    64   32   33 1    
    65   32   34 1    
    66   32  100 1    
    67   33  101 1    
    68   33  102 1    
    69   33  103 1    
    70   34   35 am   BACKBONE|DICT|INTERRES
    71   34  104 1    
    72   35   36 2    
    73   37   38 2    
    74   37   39 am   BACKBONE|DICT|INTERRES
    75   39   40 1    
    76   39  105 1    
    77   40   41 1    
    78   40   42 1    
    79   40  106 1    
    80   41  107 1    
    81   41  108 1    
    82   41  109 1    
    83   42   43 2    
    84   42   44 am   BACKBONE|DICT|INTERRES
    85   44   45 1    
    86   44  110 1    
    87   45   46 1    
    88   45   47 1    
    89   45  111 1    
    90   46  112 1    
    91   46  113 1    
    92   46  114 1    
    93   47   48 2    
    94   47   49 am   BACKBONE|DICT|INTERRES
    95   49   50 1    
    96   49  115 1    
    97   50   51 1    
    98   50   52 1    
    99   50  116 1    
   100   51  117 1    
   101   51  118 1    
   102   51  119 1    
   103   52   53 2    
   104   52   54 am   BACKBONE|DICT|INTERRES
   105   54   55 1    
   106   54  120 1    
   107   55   56 1    
   108   55   57 1    
   109   55  121 1    
   110   56  122 1    
   111   56  123 1    
   112   56  124 1    
   113   57   58 2    
   114   57   59 am   BACKBONE|DICT|INTERRES
   115   59   60 1    
   116   59  125 1    
   117   60   61 1    
   118   60   62 1    
   119   60  126 1    
   120   61  127 1    
   121   61  128 1    
   122   61  129 1    
   123   62   63 2    
   124   62   64 am   BACKBONE|DICT|INTERRES
   125   64   65 1    
   126   64  130 1    
   127   65   66 1    
   128   65   69 1    
   129   65  131 1    
   130   66   67 am   BACKBONE|DICT|INTERRES
   131   66   68 2    
   132   67  132 1    
   133   67  133 1    
   134   69   70 1    
   135   69  134 1    
   136   69  135 1    
   137   70   71 1    
   138   71  136 1    
   139   71  137 1    
@<TRIPOS>SUBSTRUCTURE
     1 UNK         1 GROUP             0       ****    0 ROOT    
