@<TRIPOS>MOLECULE
3R137
137   139    1
SMALL
USER_CHARGES


@<TRIPOS>ATOM
      1 CA         30.8888   -5.4061    1.4144 C.3       0 UNK        -0.2020 
      2 C          30.0514   -4.5633    0.4640 C.2       0 UNK         0.4855 
      3 O          30.3802   -4.4779   -0.7188 O.2       0 UNK        -0.5197 
      4 N          28.9826   -3.9408    0.9814 N.am      1 UNK        -0.4892 
      5 CA         28.0236   -3.0919    0.2576 C.3       1 UNK         0.0835 
      6 C6         28.6463   -1.7807   -0.3002 C.3       12 UNK        -0.0855 
      7 S7         29.5177   -0.7792    0.9590 S.3       12 UNK        -0.2931 
      8 C8         31.2580   -0.8717    0.4060 C.3       12 UNK         0.0378 
      9 C9         31.4204   -0.4916   -1.0607 C.ar      12 UNK        -0.0802 
     10 C10        31.8979   -1.4303   -1.9804 C.ar      12 UNK        -0.0944 
     11 C11        31.9580   -1.1225   -3.3423 C.ar      12 UNK        -0.0787 
     12 C12        31.5349    0.1339   -3.7854 C.ar      12 UNK        -0.0862 
     13 C13        31.0588    1.0812   -2.8731 C.ar      12 UNK        -0.0733 
     14 C14        31.0293    0.7723   -1.5101 C.ar      12 UNK        -0.0832 
     15 C15        30.5276    2.4199   -3.3638 C.3       12 UNK         0.0240 
     16 S16        28.7646    2.6606   -2.9530 S.3       12 UNK        -0.2522 
     17 C17        27.9667    1.2157   -3.7388 C.3       12 UNK        -0.0967 
     18 CA         27.7306    1.4041   -5.2559 C.3       5 UNK         0.0660 
     19 N          27.4932    0.1245   -5.9284 N.am      5 UNK        -0.4015 
     20 C          27.5128   -0.0353   -7.2610 C.2       4 UNK         0.4946 
     21 O          27.7464    0.8766   -8.0506 O.2       4 UNK        -0.5353 
     22 CA         27.1491   -1.4216   -7.8215 C.3       4 UNK         0.0277 
     23 CB         28.4020   -2.3047   -7.9168 C.3       4 UNK        -0.1981 
     24 N          26.1189   -2.1087   -7.0408 N.am      4 UNK        -0.4209 
     25 C          24.8986   -1.6179   -6.7789 C.2       3 UNK         0.4942 
     26 O          24.4662   -0.5745   -7.2684 O.2       3 UNK        -0.5208 
     27 CA         24.0341   -2.3773   -5.7558 C.3       3 UNK         0.0250 
     28 CB         22.9541   -3.1993   -6.4769 C.3       3 UNK        -0.1990 
     29 N          24.7797   -3.2526   -4.8398 N.am      3 UNK        -0.4232 
     30 C          25.7530   -2.8686   -4.0005 C.2       2 UNK         0.4993 
     31 O          26.1992   -1.7176   -3.9353 O.2       2 UNK        -0.5286 
     32 CA         26.3657   -3.9723   -3.1326 C.3       2 UNK         0.0209 
     33 CB         27.3641   -4.8174   -3.9463 C.3       2 UNK        -0.1931 
     34 N          27.0561   -3.3548   -2.0058 N.am      2 UNK        -0.4546 
     35 C          27.2520   -3.9137   -0.8053 C.2       1 UNK         0.5154 
     36 O          26.8347   -5.0372   -0.5100 O.2       1 UNK        -0.5181 
     37 C          26.6101    2.4232   -5.5530 C.2       5 UNK         0.5014 
     38 O          26.9085    3.5854   -5.8303 O.2       5 UNK        -0.5248 
     39 N          25.3483    1.9651   -5.5494 N.am      6 UNK        -0.4434 
     40 CA         24.1768    2.7711   -5.9109 C.3       6 UNK         0.0363 
     41 CB         22.8905    2.0240   -5.5230 C.3       6 UNK        -0.1936 
     42 C          24.1608    3.1575   -7.4011 C.2       6 UNK         0.5081 
     43 O          23.7273    4.2593   -7.7375 O.2       6 UNK        -0.5248 
     44 N          24.6693    2.2635   -8.2600 N.am      7 UNK        -0.4718 
     45 CA         24.8839    2.4986   -9.6910 C.3       7 UNK         0.0273 
     46 CB         25.0093    1.1395  -10.3998 C.3       7 UNK        -0.1935 
     47 C          26.1119    3.3816  -10.0003 C.2       7 UNK         0.5018 
     48 O          26.2762    3.7772  -11.1552 O.2       7 UNK        -0.5186 
     49 N          26.9485    3.6589   -8.9872 N.am      8 UNK        -0.4240 
     50 CA         28.2278    4.3776   -9.0427 C.3       8 UNK         0.0235 
     51 CB         28.0168    5.8583   -9.4254 C.3       8 UNK        -0.2000 
     52 C          29.2750    3.6623   -9.9211 C.2       8 UNK         0.4941 
     53 O          29.9958    4.3136  -10.6806 O.2       8 UNK        -0.5273 
     54 N          29.3337    2.3323   -9.7991 N.am      9 UNK        -0.4262 
     55 CA         30.2432    1.4359  -10.5059 C.3       9 UNK         0.0264 
     56 CB         29.3922    0.4336  -11.3071 C.3       9 UNK        -0.1955 
     57 C          31.1385    0.6956   -9.4998 C.2       9 UNK         0.5031 
     58 O          30.8951    0.7395   -8.2908 O.2       9 UNK        -0.5390 
     59 N          32.1567    0.0026  -10.0229 N.am      10 UNK        -0.4204 
     60 CA         32.9866   -0.9302   -9.2592 C.3       10 UNK         0.0237 
     61 CB         34.2984   -1.1811  -10.0212 C.3       10 UNK        -0.1985 
     62 C          32.2341   -2.2515   -9.0297 C.2       10 UNK         0.4970 
     63 O          31.4636   -2.6723   -9.8962 O.2       10 UNK        -0.4914 
     64 N          32.4955   -2.8921   -7.8855 N.am      11 UNK        -0.4285 
     65 CA         31.8917   -4.1784   -7.4959 C.3       11 UNK         0.1007 
     66 C          32.4507   -5.4156   -8.2598 C.2       11 UNK         0.5703 
     67 N          33.5419   -5.3035   -9.0087 N.am      11 UNK        -0.7361 
     68 O          31.8763   -6.4986   -8.1762 O.2       11 UNK        -0.4986 
     69 C69        31.9559   -4.4009   -5.9620 C.3       12 UNK        -0.0947 
     70 S70        31.0673   -3.1194   -5.0156 S.3       12 UNK        -0.2240 
     71 C71        32.4533   -2.1604   -4.3349 C.3       12 UNK         0.0194 
     72 H72        30.4976   -5.3875    2.4315 H         1 UNK         0.0906 
     73 H73        31.9134   -5.0358    1.4390 H         1 UNK         0.0906 
     74 H74        30.9089   -6.4423    1.0776 H         1 UNK         0.0906 
     75 H75        28.7654   -4.0805    1.9584 H         1 UNK         0.3140 
     76 H76        27.2713   -2.8018    0.9929 H         1 UNK         0.1085 
     77 H77        27.8689   -1.1368   -0.7159 H         1 UNK         0.0836 
     78 H78        29.3147   -2.0147   -1.1284 H         1 UNK         0.0836 
     79 H79        31.8638   -0.2039    1.0198 H         1 UNK         0.0731 
     80 H80        31.6300   -1.8810    0.5882 H         1 UNK         0.0731 
     81 H81        32.1881   -2.4162   -1.6425 H         1 UNK         0.1312 
     82 H82        31.5526    0.3612   -4.8431 H         1 UNK         0.1406 
     83 H83        30.6408    1.4948   -0.8047 H         1 UNK         0.1631 
     84 H84        30.6582    2.5205   -4.4423 H         1 UNK         0.0717 
     85 H85        31.1090    3.2225   -2.9083 H         1 UNK         0.0717 
     86 H86        28.5837    0.3343   -3.5598 H         1 UNK         0.0934 
     87 H87        27.0268    1.0123   -3.2218 H         1 UNK         0.0934 
     88 H88        28.6495    1.8060   -5.6890 H         1 UNK         0.0739 
     89 H89        27.2274   -0.6564   -5.3365 H         1 UNK         0.3093 
     90 H90        26.7554   -1.2768   -8.8291 H         1 UNK         0.0818 
     91 H91        29.1845   -1.8053   -8.4898 H         1 UNK         0.0819 
     92 H92        28.8143   -2.5278   -6.9326 H         1 UNK         0.0819 
     93 H93        28.1895   -3.2495   -8.4169 H         1 UNK         0.0819 
     94 H94        26.3834   -2.9777   -6.6017 H         1 UNK         0.3041 
     95 H95        23.5355   -1.6221   -5.1446 H         1 UNK         0.0784 
     96 H96        22.3645   -2.5693   -7.1449 H         1 UNK         0.0793 
     97 H97        23.3892   -3.9965   -7.0811 H         1 UNK         0.0793 
     98 H98        22.2600   -3.6529   -5.7691 H         1 UNK         0.0793 
     99 H99        24.4993   -4.2234   -4.8345 H         1 UNK         0.3024 
    100 H100       25.5577   -4.6071   -2.7606 H         1 UNK         0.1171 
    101 H101       26.8767   -5.3070   -4.7901 H         1 UNK         0.0786 
    102 H102       28.1761   -4.2070   -4.3442 H         1 UNK         0.0786 
    103 H103       27.8103   -5.6015   -3.3341 H         1 UNK         0.0786 
    104 H104       27.3615   -2.4063   -2.1827 H         1 UNK         0.2977 
    105 H105       25.1864    0.9857   -5.3626 H         1 UNK         0.3127 
    106 H106       24.2177    3.6966   -5.3323 H         1 UNK         0.0770 
    107 H107       22.7798    1.0894   -6.0733 H         1 UNK         0.0814 
    108 H108       22.0105    2.6317   -5.7381 H         1 UNK         0.0814 
    109 H109       22.8704    1.7924   -4.4581 H         1 UNK         0.0814 
    110 H110       24.9348    1.3513   -7.9024 H         1 UNK         0.2983 
    111 H111       24.0069    3.0129  -10.0901 H         1 UNK         0.0947 
    112 H112       25.9055    0.6049  -10.0853 H         1 UNK         0.0806 
    113 H113       25.0716    1.2673  -11.4813 H         1 UNK         0.0806 
    114 H114       24.1486    0.5019  -10.1968 H         1 UNK         0.0806 
    115 H115       26.7232    3.2606   -8.0841 H         1 UNK         0.3000 
    116 H116       28.6258    4.3562   -8.0270 H         1 UNK         0.0850 
    117 H117       28.9469    6.4206   -9.3348 H         1 UNK         0.0810 
    118 H118       27.2857    6.3353   -8.7726 H         1 UNK         0.0810 
    119 H119       27.6713    5.9671  -10.4538 H         1 UNK         0.0810 
    120 H120       28.7450    1.8730   -9.1010 H         1 UNK         0.3040 
    121 H121       30.8839    1.9958  -11.1903 H         1 UNK         0.0766 
    122 H122       28.7654   -0.1732  -10.6516 H         1 UNK         0.0812 
    123 H123       30.0158   -0.2490  -11.8854 H         1 UNK         0.0812 
    124 H124       28.7366    0.9472  -12.0107 H         1 UNK         0.0812 
    125 H125       32.2672   -0.0161  -11.0264 H         1 UNK         0.3205 
    126 H126       33.2245   -0.4812   -8.2921 H         1 UNK         0.0754 
    127 H127       34.9585   -1.8421   -9.4581 H         1 UNK         0.0769 
    128 H128       34.8425   -0.2515  -10.1900 H         1 UNK         0.0769 
    129 H129       34.1207   -1.6467  -10.9918 H         1 UNK         0.0769 
    130 H130       33.1583   -2.4980   -7.2361 H         1 UNK         0.2981 
    131 H131       30.8350   -4.1306   -7.7659 H         1 UNK         0.0541 
    132 H132       33.8873   -6.1129   -9.4999 H         1 UNK         0.3459 
    133 H133       34.0205   -4.4217   -9.0892 H         1 UNK         0.3459 
    134 H134       32.9925   -4.4613   -5.6261 H         1 UNK         0.0612 
    135 H135       31.4990   -5.3562   -5.6971 H         1 UNK         0.0612 
    136 H136       33.1588   -2.8346   -3.8468 H         1 UNK         0.0624 
    137 H137       32.9953   -1.6738   -5.1466 H         1 UNK         0.0624 
@<TRIPOS>BOND
     1    1    2 1    
     2    1   72 1    
     3    1   73 1    
     4    1   74 1    
     5    2    3 2    
     6    2    4 am   BACKBONE|DICT|INTERRES
     7    4    5 1    
     8    4   75 1    
     9    5    6 1    
    10    5   35 1    
    11    5   76 1    
    12    6    7 1    
    13    6   77 1    
    14    6   78 1    
    15    7    8 1    
    16    8    9 1    
    17    8   79 1    
    18    8   80 1    
    19    9   10 ar   
    20    9   14 ar   
    21   10   11 ar   
    22   10   81 1    
    23   11   12 ar   
    24   11   71 1    
    25   12   13 ar   
    26   12   82 1    
    27   13   14 ar   
    28   13   15 1    
    29   14   83 1    
    30   15   16 1    
    31   15   84 1    
    32   15   85 1    
    33   16   17 1    
    34   17   18 1    
    35   17   86 1    
    36   17   87 1    
    37   18   19 1    
    38   18   37 1    
    39   18   88 1    
    40   19   20 am   BACKBONE|DICT|INTERRES
    41   19   89 1    
    42   20   21 2    
    43   20   22 1    
    44   22   23 1    
    45   22   24 1    
    46   22   90 1    
    47   23   91 1    
    48   23   92 1    
    49   23   93 1    
    50   24   25 am   BACKBONE|DICT|INTERRES
    51   24   94 1    
    52   25   26 2    
    53   25   27 1    
    54   27   28 1    
    55   27   29 1    
    56   27   95 1    
    57   28   96 1    
    58   28   97 1    
    59   28   98 1    
    60   29   30 am   BACKBONE|DICT|INTERRES
    61   29   99 1    
    62   30   31 2    
    63   30   32 1    
    64   32   33 1    
    65   32   34 1    
    66   32  100 1    
    67   33  101 1    
    68   33  102 1    
    69   33  103 1    
    70   34   35 am   BACKBONE|DICT|INTERRES
    71   34  104 1    
    72   35   36 2    
    73   37   38 2    
    74   37   39 am   BACKBONE|DICT|INTERRES
    75   39   40 1    
    76   39  105 1    
    77   40   41 1    
    78   40   42 1    
    79   40  106 1    
    80   41  107 1    
    81   41  108 1    
    82   41  109 1    
    83   42   43 2    
    84   42   44 am   BACKBONE|DICT|INTERRES
    85   44   45 1    
    86   44  110 1    
    87   45   46 1    
    88   45   47 1    
    89   45  111 1    
    90   46  112 1    
    91   46  113 1    
    92   46  114 1    
    93   47   48 2    
    94   47   49 am   BACKBONE|DICT|INTERRES
    95   49   50 1    
    96   49  115 1    
    97   50   51 1    
    98   50   52 1    
    99   50  116 1    
   100   51  117 1    
   101   51  118 1    
   102   51  119 1    
   103   52   53 2    
   104   52   54 am   BACKBONE|DICT|INTERRES
   105   54   55 1    
   106   54  120 1    
   107   55   56 1    
   108   55   57 1    
   109   55  121 1    
   110   56  122 1    
   111   56  123 1    
   112   56  124 1    
   113   57   58 2    
   114   57   59 am   BACKBONE|DICT|INTERRES
   115   59   60 1    
   116   59  125 1    
   117   60   61 1    
   118   60   62 1    
   119   60  126 1    
   120   61  127 1    
   121   61  128 1    
   122   61  129 1    
   123   62   63 2    
   124   62   64 am   BACKBONE|DICT|INTERRES
   125   64   65 1    
   126   64  130 1    
   127   65   66 1    
   128   65   69 1    
   129   65  131 1    
   130   66   67 am   BACKBONE|DICT|INTERRES
   131   66   68 2    
   132   67  132 1    
   133   67  133 1    
   134   69   70 1    
   135   69  134 1    
   136   69  135 1    
   137   70   71 1    
   138   71  136 1    
   139   71  137 1    
@<TRIPOS>SUBSTRUCTURE
     1 UNK         1 GROUP             0       ****    0 ROOT    
