@<TRIPOS>MOLECULE
3R137
137   139    1
SMALL
USER_CHARGES


@<TRIPOS>ATOM
      1 CA         26.8369   -6.0550    1.3810 C.3       0 UNK        -0.2020 
      2 C          26.9825   -4.9060    0.3951 C.2       0 UNK         0.4855 
      3 O          26.7887   -3.7484    0.7681 O.2       0 UNK        -0.5197 
      4 N          27.3111   -5.2125   -0.8659 N.am      1 UNK        -0.4892 
      5 CA         27.5196   -4.2518   -1.9581 C.3       1 UNK         0.0835 
      6 C6         28.4807   -4.8225   -3.0370 C.3       12 UNK        -0.0855 
      7 S7         30.1175   -5.2768   -2.3595 S.3       12 UNK        -0.2931 
      8 C8         31.2698   -4.3589   -3.4486 C.3       12 UNK         0.0378 
      9 C9         31.1631   -2.8322   -3.4039 C.ar      12 UNK        -0.0802 
     10 C10        31.6955   -2.0888   -4.4623 C.ar      12 UNK        -0.0944 
     11 C11        31.6139   -0.6922   -4.4739 C.ar      12 UNK        -0.0787 
     12 C12        30.9850   -0.0319   -3.4155 C.ar      12 UNK        -0.0862 
     13 C13        30.4341   -0.7600   -2.3582 C.ar      12 UNK        -0.0733 
     14 C14        30.5581   -2.1513   -2.3414 C.ar      12 UNK        -0.0832 
     15 C15        29.6732   -0.0653   -1.2409 C.3       12 UNK         0.0240 
     16 S16        27.8817   -0.3469   -1.4232 S.3       12 UNK        -0.2522 
     17 C17        27.3236    1.1712   -2.2644 C.3       12 UNK        -0.0967 
     18 CA         27.5831    1.2038   -3.7921 C.3       5 UNK         0.0660 
     19 N          27.0478    0.0432   -4.5132 N.am      5 UNK        -0.4015 
     20 C          27.4155   -0.2818   -5.7644 C.2       4 UNK         0.4946 
     21 O          28.2985    0.3072   -6.3853 O.2       4 UNK        -0.5353 
     22 CA         26.6547   -1.4051   -6.4901 C.3       4 UNK         0.0277 
     23 CB         27.4677   -2.7047   -6.4934 C.3       4 UNK        -0.1981 
     24 N          25.3155   -1.6469   -5.9532 N.am      4 UNK        -0.4209 
     25 C          24.3069   -0.7679   -6.0535 C.2       3 UNK         0.4942 
     26 O          24.4018    0.3062   -6.6485 O.2       3 UNK        -0.5208 
     27 CA         22.9938   -1.1023   -5.3245 C.3       3 UNK         0.0250 
     28 CB         21.9965   -1.7550   -6.2940 C.3       3 UNK        -0.1990 
     29 N          23.1563   -1.9572   -4.1430 N.am      3 UNK        -0.4232 
     30 C          23.9248   -1.6791   -3.0796 C.2       2 UNK         0.4993 
     31 O          24.6113   -0.6601   -2.9878 O.2       2 UNK        -0.5286 
     32 CA         23.9628   -2.7112   -1.9367 C.3       2 UNK         0.0209 
     33 CB         23.0019   -3.9082   -2.1242 C.3       2 UNK        -0.1931 
     34 N          25.3241   -3.1938   -1.6797 N.am      2 UNK        -0.4546 
     35 C          26.1675   -3.7784   -2.5434 C.2       1 UNK         0.5154 
     36 O          25.8985   -3.9755   -3.7308 O.2       1 UNK        -0.5181 
     37 C          27.0548    2.5252   -4.3831 C.2       5 UNK         0.5014 
     38 O          27.7982    3.5062   -4.4253 O.2       5 UNK        -0.5248 
     39 N          25.7877    2.5300   -4.8229 N.am      6 UNK        -0.4434 
     40 CA         25.1426    3.6764   -5.4618 C.3       6 UNK         0.0363 
     41 CB         23.6146    3.5326   -5.3655 C.3       6 UNK        -0.1936 
     42 C          25.5887    3.8371   -6.9226 C.2       6 UNK         0.5081 
     43 O          25.8809    4.9559   -7.3455 O.2       6 UNK        -0.5248 
     44 N          25.6337    2.7218   -7.6654 N.am      7 UNK        -0.4718 
     45 CA         26.0366    2.6887   -9.0734 C.3       7 UNK         0.0273 
     46 CB         25.5946    1.3554   -9.6983 C.3       7 UNK        -0.1935 
     47 C          27.5446    2.9042   -9.2843 C.2       7 UNK         0.5018 
     48 O          27.9275    3.4742  -10.3056 O.2       7 UNK        -0.5186 
     49 N          28.3659    2.4105   -8.3437 N.am      8 UNK        -0.4240 
     50 CA         29.8370    2.4132   -8.3215 C.3       8 UNK         0.0235 
     51 CB         30.3970    3.8503   -8.3341 C.3       8 UNK        -0.2000 
     52 C          30.5022    1.5260   -9.3940 C.2       8 UNK         0.4941 
     53 O          31.7304    1.4825   -9.4524 O.2       8 UNK        -0.5273 
     54 N          29.7065    0.8067  -10.1996 N.am      9 UNK        -0.4262 
     55 CA         30.1401   -0.0103  -11.3395 C.3       9 UNK         0.0264 
     56 CB         28.8966   -0.5192  -12.0871 C.3       9 UNK        -0.1955 
     57 C          31.0679   -1.1847  -10.9788 C.2       9 UNK         0.5031 
     58 O          31.8355   -1.6301  -11.8328 O.2       9 UNK        -0.5390 
     59 N          30.9882   -1.6592   -9.7294 N.am      10 UNK        -0.4204 
     60 CA         31.8613   -2.6942   -9.1725 C.3       10 UNK         0.0237 
     61 CB         31.1477   -3.3482   -7.9772 C.3       10 UNK        -0.1985 
     62 C          33.2549   -2.1729   -8.7645 C.2       10 UNK         0.4970 
     63 O          34.1334   -2.9933   -8.4954 O.2       10 UNK        -0.4914 
     64 N          33.4335   -0.8473   -8.7064 N.am      11 UNK        -0.4285 
     65 CA         34.6761   -0.1651   -8.3242 C.3       11 UNK         0.1007 
     66 C          35.3683    0.4799   -9.5560 C.2       11 UNK         0.5703 
     67 N          36.6106    0.9197   -9.4029 N.am      11 UNK        -0.7361 
     68 O          34.8087    0.5878  -10.6461 O.2       11 UNK        -0.4986 
     69 C69        34.4069    0.8751   -7.2021 C.3       12 UNK        -0.0947 
     70 S70        34.0049    0.0763   -5.6133 S.3       12 UNK        -0.2240 
     71 C71        32.1868    0.0969   -5.6411 C.3       12 UNK         0.0194 
     72 H72        27.0408   -7.0197    0.9169 H         1 UNK         0.0906 
     73 H73        27.5300   -5.9255    2.2118 H         1 UNK         0.0906 
     74 H74        25.8241   -6.0786    1.7825 H         1 UNK         0.0906 
     75 H75        27.4468   -6.1816   -1.1177 H         1 UNK         0.3140 
     76 H76        27.9878   -3.3599   -1.5404 H         1 UNK         0.1085 
     77 H77        28.6318   -4.0896   -3.8276 H         1 UNK         0.0836 
     78 H78        28.0473   -5.7026   -3.5158 H         1 UNK         0.0836 
     79 H79        31.1166   -4.7049   -4.4723 H         1 UNK         0.0731 
     80 H80        32.2894   -4.6377   -3.1795 H         1 UNK         0.0731 
     81 H81        32.1875   -2.5975   -5.2797 H         1 UNK         0.1312 
     82 H82        30.9104    1.0467   -3.4242 H         1 UNK         0.1406 
     83 H83        30.1573   -2.6971   -1.5005 H         1 UNK         0.1631 
     84 H84        29.8941    1.0026   -1.2156 H         1 UNK         0.0717 
     85 H85        29.9968   -0.4676   -0.2798 H         1 UNK         0.0717 
     86 H86        26.2556    1.2728   -2.0619 H         1 UNK         0.0934 
     87 H87        27.7962    2.0274   -1.7787 H         1 UNK         0.0934 
     88 H88        28.6610    1.2116   -3.9450 H         1 UNK         0.0739 
     89 H89        26.2950   -0.4590   -4.0522 H         1 UNK         0.3093 
     90 H90        26.5388   -1.0913   -7.5289 H         1 UNK         0.0818 
     91 H91        27.6328   -3.0688   -5.4835 H         1 UNK         0.0819 
     92 H92        26.9667   -3.4903   -7.0591 H         1 UNK         0.0819 
     93 H93        28.4461   -2.5488   -6.9472 H         1 UNK         0.0819 
     94 H94        25.1828   -2.4919   -5.4103 H         1 UNK         0.3041 
     95 H95        22.5693   -0.1560   -4.9829 H         1 UNK         0.0784 
     96 H96        21.8391   -1.1275   -7.1727 H         1 UNK         0.0793 
     97 H97        22.3505   -2.7250   -6.6456 H         1 UNK         0.0793 
     98 H98        21.0230   -1.9009   -5.8253 H         1 UNK         0.0793 
     99 H99        22.6451   -2.8281   -4.1422 H         1 UNK         0.3024 
    100 H100       23.6508   -2.1721   -1.0407 H         1 UNK         0.1171 
    101 H101       23.0318   -4.5678   -1.2567 H         1 UNK         0.0786 
    102 H102       21.9682   -3.5763   -2.2306 H         1 UNK         0.0786 
    103 H103       23.2549   -4.5099   -2.9982 H         1 UNK         0.0786 
    104 H104       25.6613   -3.0858   -0.7270 H         1 UNK         0.2977 
    105 H105       25.2531    1.6736   -4.7776 H         1 UNK         0.3127 
    106 H106       25.4287    4.5823   -4.9225 H         1 UNK         0.0770 
    107 H107       23.2538    2.6429   -5.8826 H         1 UNK         0.0814 
    108 H108       23.1154    4.3929   -5.8133 H         1 UNK         0.0814 
    109 H109       23.2868    3.4730   -4.3276 H         1 UNK         0.0814 
    110 H110       25.3087    1.8478   -7.2568 H         1 UNK         0.2983 
    111 H111       25.5155    3.4958   -9.5936 H         1 UNK         0.0947 
    112 H112       25.8399    1.3204  -10.7608 H         1 UNK         0.0806 
    113 H113       24.5168    1.2156   -9.6107 H         1 UNK         0.0806 
    114 H114       26.0796    0.5038   -9.2220 H         1 UNK         0.0806 
    115 H115       27.9506    1.9004   -7.5700 H         1 UNK         0.3000 
    116 H116       30.1153    1.9705   -7.3644 H         1 UNK         0.0850 
    117 H117       31.4740    3.8508   -8.1613 H         1 UNK         0.0810 
    118 H118       29.9439    4.4580   -7.5508 H         1 UNK         0.0810 
    119 H119       30.2238    4.3470   -9.2890 H         1 UNK         0.0810 
    120 H120       28.7110    0.9085  -10.0735 H         1 UNK         0.3040 
    121 H121       30.7002    0.6435  -12.0113 H         1 UNK         0.0766 
    122 H122       29.1798   -1.1069  -12.9617 H         1 UNK         0.0812 
    123 H123       28.2798    0.3069  -12.4418 H         1 UNK         0.0812 
    124 H124       28.2764   -1.1555  -11.4543 H         1 UNK         0.0812 
    125 H125       30.3211   -1.2337   -9.1025 H         1 UNK         0.3205 
    126 H126       32.0199   -3.4635   -9.9314 H         1 UNK         0.0754 
    127 H127       30.8790   -2.6133   -7.2190 H         1 UNK         0.0769 
    128 H128       31.7793   -4.0989   -7.4999 H         1 UNK         0.0769 
    129 H129       30.2339   -3.8522   -8.2923 H         1 UNK         0.0769 
    130 H130       32.7004   -0.2258   -9.0318 H         1 UNK         0.2981 
    131 H131       35.3868   -0.8981   -7.9381 H         1 UNK         0.0541 
    132 H132       37.0895    0.8356   -8.5197 H         1 UNK         0.3459 
    133 H133       37.0800    1.3413  -10.1890 H         1 UNK         0.3459 
    134 H134       33.6103    1.5653   -7.4851 H         1 UNK         0.0612 
    135 H135       35.2894    1.4918   -7.0242 H         1 UNK         0.0612 
    136 H136       31.8198   -0.3301   -6.5740 H         1 UNK         0.0624 
    137 H137       31.8408    1.1314   -5.6189 H         1 UNK         0.0624 
@<TRIPOS>BOND
     1    1    2 1    
     2    1   72 1    
     3    1   73 1    
     4    1   74 1    
     5    2    3 2    
     6    2    4 am   BACKBONE|DICT|INTERRES
     7    4    5 1    
     8    4   75 1    
     9    5    6 1    
    10    5   35 1    
    11    5   76 1    
    12    6    7 1    
    13    6   77 1    
    14    6   78 1    
    15    7    8 1    
    16    8    9 1    
    17    8   79 1    
    18    8   80 1    
    19    9   10 ar   
    20    9   14 ar   
    21   10   11 ar   
    22   10   81 1    
    23   11   12 ar   
    24   11   71 1    
    25   12   13 ar   
    26   12   82 1    
    27   13   14 ar   
    28   13   15 1    
    29   14   83 1    
    30   15   16 1    
    31   15   84 1    
    32   15   85 1    
    33   16   17 1    
    34   17   18 1    
    35   17   86 1    
    36   17   87 1    
    37   18   19 1    
    38   18   37 1    
    39   18   88 1    
    40   19   20 am   BACKBONE|DICT|INTERRES
    41   19   89 1    
    42   20   21 2    
    43   20   22 1    
    44   22   23 1    
    45   22   24 1    
    46   22   90 1    
    47   23   91 1    
    48   23   92 1    
    49   23   93 1    
    50   24   25 am   BACKBONE|DICT|INTERRES
    51   24   94 1    
    52   25   26 2    
    53   25   27 1    
    54   27   28 1    
    55   27   29 1    
    56   27   95 1    
    57   28   96 1    
    58   28   97 1    
    59   28   98 1    
    60   29   30 am   BACKBONE|DICT|INTERRES
    61   29   99 1    
    62   30   31 2    
    63   30   32 1    
    64   32   33 1    
    65   32   34 1    
    66   32  100 1    
    67   33  101 1    
    68   33  102 1    
    69   33  103 1    
    70   34   35 am   BACKBONE|DICT|INTERRES
    71   34  104 1    
    72   35   36 2    
    73   37   38 2    
    74   37   39 am   BACKBONE|DICT|INTERRES
    75   39   40 1    
    76   39  105 1    
    77   40   41 1    
    78   40   42 1    
    79   40  106 1    
    80   41  107 1    
    81   41  108 1    
    82   41  109 1    
    83   42   43 2    
    84   42   44 am   BACKBONE|DICT|INTERRES
    85   44   45 1    
    86   44  110 1    
    87   45   46 1    
    88   45   47 1    
    89   45  111 1    
    90   46  112 1    
    91   46  113 1    
    92   46  114 1    
    93   47   48 2    
    94   47   49 am   BACKBONE|DICT|INTERRES
    95   49   50 1    
    96   49  115 1    
    97   50   51 1    
    98   50   52 1    
    99   50  116 1    
   100   51  117 1    
   101   51  118 1    
   102   51  119 1    
   103   52   53 2    
   104   52   54 am   BACKBONE|DICT|INTERRES
   105   54   55 1    
   106   54  120 1    
   107   55   56 1    
   108   55   57 1    
   109   55  121 1    
   110   56  122 1    
   111   56  123 1    
   112   56  124 1    
   113   57   58 2    
   114   57   59 am   BACKBONE|DICT|INTERRES
   115   59   60 1    
   116   59  125 1    
   117   60   61 1    
   118   60   62 1    
   119   60  126 1    
   120   61  127 1    
   121   61  128 1    
   122   61  129 1    
   123   62   63 2    
   124   62   64 am   BACKBONE|DICT|INTERRES
   125   64   65 1    
   126   64  130 1    
   127   65   66 1    
   128   65   69 1    
   129   65  131 1    
   130   66   67 am   BACKBONE|DICT|INTERRES
   131   66   68 2    
   132   67  132 1    
   133   67  133 1    
   134   69   70 1    
   135   69  134 1    
   136   69  135 1    
   137   70   71 1    
   138   71  136 1    
   139   71  137 1    
@<TRIPOS>SUBSTRUCTURE
     1 UNK         1 GROUP             0       ****    0 ROOT    
