@<TRIPOS>MOLECULE
3R137
137   139    1
SMALL
USER_CHARGES


@<TRIPOS>ATOM
      1 CA         28.3888   -8.4651   -1.9542 C.3       0 UNK        -0.2020 
      2 C          27.7517   -7.1835   -1.4389 C.2       0 UNK         0.4855 
      3 O          27.1403   -7.1898   -0.3704 O.2       0 UNK        -0.5197 
      4 N          27.8878   -6.0831   -2.1909 N.am      1 UNK        -0.4892 
      5 CA         27.3639   -4.7536   -1.8385 C.3       1 UNK         0.0835 
      6 C6         28.0346   -3.6205   -2.6628 C.3       12 UNK        -0.0855 
      7 S7         29.8572   -3.6958   -2.6170 S.3       12 UNK        -0.2931 
      8 C8         30.2432   -2.5995   -1.2160 C.3       12 UNK         0.0378 
      9 C9         30.3585   -1.1408   -1.6362 C.ar      12 UNK        -0.0802 
     10 C10        31.4156   -0.7380   -2.4582 C.ar      12 UNK        -0.0944 
     11 C11        31.5746    0.6047   -2.8101 C.ar      12 UNK        -0.0787 
     12 C12        30.6699    1.5526   -2.3211 C.ar      12 UNK        -0.0862 
     13 C13        29.6104    1.1658   -1.4918 C.ar      12 UNK        -0.0733 
     14 C14        29.4538   -0.1849   -1.1612 C.ar      12 UNK        -0.0832 
     15 C15        28.6659    2.2133   -0.9117 C.3       12 UNK         0.0240 
     16 S16        27.0574    2.2690   -1.7671 S.3       12 UNK        -0.2522 
     17 C17        27.5511    2.7659   -3.4511 C.3       12 UNK        -0.0967 
     18 CA         27.5433    1.5390   -4.4062 C.3       5 UNK         0.0660 
     19 N          26.2005    0.9838   -4.6052 N.am      5 UNK        -0.4015 
     20 C          25.1730    1.5423   -5.2561 C.2       4 UNK         0.4946 
     21 O          25.2269    2.6456   -5.8051 O.2       4 UNK        -0.5353 
     22 CA         23.8599    0.7274   -5.2883 C.3       4 UNK         0.0277 
     23 CB         22.7457    1.4430   -6.0764 C.3       4 UNK        -0.1981 
     24 N          24.0107   -0.6321   -5.8242 N.am      4 UNK        -0.4209 
     25 C          24.6220   -1.6583   -5.2184 C.2       3 UNK         0.4942 
     26 O          25.2078   -1.5666   -4.1363 O.2       3 UNK        -0.5208 
     27 CA         24.6115   -3.0029   -5.9644 C.3       3 UNK         0.0250 
     28 CB         25.8635   -3.1389   -6.8474 C.3       3 UNK        -0.1990 
     29 N          24.5857   -4.1196   -5.0216 N.am      3 UNK        -0.4232 
     30 C          23.5506   -4.4533   -4.2373 C.2       2 UNK         0.4993 
     31 O          22.4292   -3.9518   -4.3273 O.2       2 UNK        -0.5286 
     32 CA         23.8193   -5.5238   -3.1635 C.3       2 UNK         0.0209 
     33 CB         23.3896   -6.9131   -3.6624 C.3       2 UNK        -0.1931 
     34 N          25.2310   -5.5664   -2.7678 N.am      2 UNK        -0.4546 
     35 C          25.8280   -4.6633   -1.9741 C.2       1 UNK         0.5154 
     36 O          25.2192   -3.7745   -1.3774 O.2       1 UNK        -0.5181 
     37 C          28.2802    1.7556   -5.7460 C.2       5 UNK         0.5014 
     38 O          27.9410    1.1019   -6.7351 O.2       5 UNK        -0.5248 
     39 N          29.3080    2.6176   -5.7576 N.am      6 UNK        -0.4434 
     40 CA         30.2793    2.7931   -6.8444 C.3       6 UNK         0.0363 
     41 CB         31.2749    3.8994   -6.4633 C.3       6 UNK        -0.1936 
     42 C          29.6908    3.0603   -8.2377 C.2       6 UNK         0.5081 
     43 O          30.2797    2.6178   -9.2232 O.2       6 UNK        -0.5248 
     44 N          28.5320    3.7290   -8.2941 N.am      7 UNK        -0.4718 
     45 CA         27.7811    3.9999   -9.5230 C.3       7 UNK         0.0273 
     46 CB         26.6218    4.9561   -9.1988 C.3       7 UNK        -0.1935 
     47 C          27.2496    2.7356  -10.2260 C.2       7 UNK         0.5018 
     48 O          27.0470    2.7730  -11.4404 O.2       7 UNK        -0.5186 
     49 N          27.0316    1.6561   -9.4634 N.am      8 UNK        -0.4240 
     50 CA         26.5476    0.3660   -9.9559 C.3       8 UNK         0.0235 
     51 CB         25.2782   -0.0140   -9.1785 C.3       8 UNK        -0.2000 
     52 C          27.6165   -0.7295   -9.8206 C.2       8 UNK         0.4941 
     53 O          27.7423   -1.5595  -10.7209 O.2       8 UNK        -0.5273 
     54 N          28.3644   -0.7212   -8.7083 N.am      9 UNK        -0.4262 
     55 CA         29.4035   -1.7001   -8.3818 C.3       9 UNK         0.0264 
     56 CB         29.6976   -1.6363   -6.8727 C.3       9 UNK        -0.1955 
     57 C          30.7045   -1.5186   -9.1830 C.2       9 UNK         0.5031 
     58 O          31.4675   -2.4803   -9.2838 O.2       9 UNK        -0.5390 
     59 N          30.9396   -0.3101   -9.7221 N.am      10 UNK        -0.4204 
     60 CA         32.1285    0.1067  -10.4770 C.3       10 UNK         0.0237 
     61 CB         32.2212   -0.6438  -11.8234 C.3       10 UNK        -0.1985 
     62 C          33.4135    0.0075   -9.6324 C.2       10 UNK         0.4970 
     63 O          34.3733   -0.6525  -10.0356 O.2       10 UNK        -0.4914 
     64 N          33.3937    0.6605   -8.4622 N.am      11 UNK        -0.4285 
     65 CA         34.5026    0.6857   -7.4911 C.3       11 UNK         0.1007 
     66 C          35.7919    1.4098   -7.9820 C.2       11 UNK         0.5703 
     67 N          35.7377    2.2415   -9.0160 N.am      11 UNK        -0.7361 
     68 O          36.8619    1.2094   -7.4120 O.2       11 UNK        -0.4986 
     69 C69        34.0613    1.2599   -6.1185 C.3       12 UNK        -0.0947 
     70 S70        32.6656    0.3671   -5.3584 S.3       12 UNK        -0.2240 
     71 C71        32.7568    1.0350   -3.6683 C.3       12 UNK         0.0194 
     72 H72        29.1173   -8.8370   -1.2342 H         1 UNK         0.0906 
     73 H73        27.6278   -9.2321   -2.0961 H         1 UNK         0.0906 
     74 H74        28.8996   -8.3138   -2.9050 H         1 UNK         0.0906 
     75 H75        28.4361   -6.1224   -3.0393 H         1 UNK         0.3140 
     76 H76        27.5922   -4.5786   -0.7847 H         1 UNK         0.1085 
     77 H77        27.7071   -2.6392   -2.3119 H         1 UNK         0.0836 
     78 H78        27.7306   -3.6764   -3.7099 H         1 UNK         0.0836 
     79 H79        29.4980   -2.7282   -0.4294 H         1 UNK         0.0731 
     80 H80        31.1944   -2.9133   -0.7837 H         1 UNK         0.0731 
     81 H81        32.1232   -1.4724   -2.8187 H         1 UNK         0.1312 
     82 H82        30.8061    2.5970   -2.5652 H         1 UNK         0.1406 
     83 H83        28.6411   -0.4844   -0.5131 H         1 UNK         0.1631 
     84 H84        29.1231    3.2036   -0.9412 H         1 UNK         0.0717 
     85 H85        28.4917    1.9959    0.1431 H         1 UNK         0.0717 
     86 H86        26.8674    3.5388   -3.8062 H         1 UNK         0.0934 
     87 H87        28.5279    3.2431   -3.3837 H         1 UNK         0.0934 
     88 H88        28.1106    0.7408   -3.9248 H         1 UNK         0.0739 
     89 H89        26.0464    0.0480   -4.2348 H         1 UNK         0.3093 
     90 H90        23.5251    0.6412   -4.2522 H         1 UNK         0.0818 
     91 H91        21.8059    0.8926   -6.0278 H         1 UNK         0.0819 
     92 H92        22.5549    2.4372   -5.6698 H         1 UNK         0.0819 
     93 H93        23.0110    1.5665   -7.1272 H         1 UNK         0.0819 
     94 H94        23.5809   -0.7976   -6.7226 H         1 UNK         0.3041 
     95 H95        23.7202   -3.0585   -6.5932 H         1 UNK         0.0784 
     96 H96        25.8521   -4.0717   -7.4114 H         1 UNK         0.0793 
     97 H97        25.9301   -2.3284   -7.5715 H         1 UNK         0.0793 
     98 H98        26.7783   -3.1180   -6.2543 H         1 UNK         0.0793 
     99 H99        25.4661   -4.5799   -4.8518 H         1 UNK         0.3024 
    100 H100       23.2173   -5.2688   -2.2880 H         1 UNK         0.1171 
    101 H101       23.9587   -7.2236   -4.5396 H         1 UNK         0.0786 
    102 H102       22.3346   -6.9176   -3.9401 H         1 UNK         0.0786 
    103 H103       23.5227   -7.6704   -2.8895 H         1 UNK         0.0786 
    104 H104       25.8055   -6.2886   -3.1781 H         1 UNK         0.2977 
    105 H105       29.5100    3.1244   -4.9097 H         1 UNK         0.3127 
    106 H106       30.8251    1.8537   -6.9242 H         1 UNK         0.0770 
    107 H107       30.7784    4.8626   -6.3394 H         1 UNK         0.0814 
    108 H108       32.0369    4.0234   -7.2343 H         1 UNK         0.0814 
    109 H109       31.7934    3.6671   -5.5333 H         1 UNK         0.0814 
    110 H110       28.1112    4.0282   -7.4260 H         1 UNK         0.2983 
    111 H111       28.4556    4.4988  -10.2224 H         1 UNK         0.0947 
    112 H112       26.0518    5.1982  -10.0970 H         1 UNK         0.0806 
    113 H113       26.9857    5.8968   -8.7852 H         1 UNK         0.0806 
    114 H114       25.9275    4.5177   -8.4801 H         1 UNK         0.0806 
    115 H115       27.2527    1.7113   -8.4734 H         1 UNK         0.3000 
    116 H116       26.2861    0.4325  -11.0142 H         1 UNK         0.0850 
    117 H117       25.4655   -0.0351   -8.1054 H         1 UNK         0.0810 
    118 H118       24.4767    0.7020   -9.3611 H         1 UNK         0.0810 
    119 H119       24.9110   -0.9970   -9.4766 H         1 UNK         0.0810 
    120 H120       28.1778   -0.0177   -7.9921 H         1 UNK         0.3040 
    121 H121       29.0140   -2.6946   -8.6097 H         1 UNK         0.0766 
    122 H122       28.7984   -1.8004   -6.2798 H         1 UNK         0.0812 
    123 H123       30.1111   -0.6697   -6.5853 H         1 UNK         0.0812 
    124 H124       30.4222   -2.3977   -6.5808 H         1 UNK         0.0812 
    125 H125       30.2614    0.4245   -9.5581 H         1 UNK         0.3205 
    126 H126       31.9947    1.1646  -10.7073 H         1 UNK         0.0754 
    127 H127       33.0433   -0.2586  -12.4278 H         1 UNK         0.0769 
    128 H128       31.3075   -0.5249  -12.4058 H         1 UNK         0.0769 
    129 H129       32.3935   -1.7117  -11.6857 H         1 UNK         0.0769 
    130 H130       32.5663    1.1764   -8.2072 H         1 UNK         0.2981 
    131 H131       34.7928   -0.3539   -7.3276 H         1 UNK         0.0541 
    132 H132       36.5806    2.7000   -9.3242 H         1 UNK         0.3459 
    133 H133       34.8668    2.4140   -9.4909 H         1 UNK         0.3459 
    134 H134       33.7861    2.3108   -6.2172 H         1 UNK         0.0612 
    135 H135       34.8950    1.2277   -5.4141 H         1 UNK         0.0612 
    136 H136       32.8155    2.1232   -3.7201 H         1 UNK         0.0624 
    137 H137       33.6821    0.6969   -3.1997 H         1 UNK         0.0624 
@<TRIPOS>BOND
     1    1    2 1    
     2    1   72 1    
     3    1   73 1    
     4    1   74 1    
     5    2    3 2    
     6    2    4 am   BACKBONE|DICT|INTERRES
     7    4    5 1    
     8    4   75 1    
     9    5    6 1    
    10    5   35 1    
    11    5   76 1    
    12    6    7 1    
    13    6   77 1    
    14    6   78 1    
    15    7    8 1    
    16    8    9 1    
    17    8   79 1    
    18    8   80 1    
    19    9   10 ar   
    20    9   14 ar   
    21   10   11 ar   
    22   10   81 1    
    23   11   12 ar   
    24   11   71 1    
    25   12   13 ar   
    26   12   82 1    
    27   13   14 ar   
    28   13   15 1    
    29   14   83 1    
    30   15   16 1    
    31   15   84 1    
    32   15   85 1    
    33   16   17 1    
    34   17   18 1    
    35   17   86 1    
    36   17   87 1    
    37   18   19 1    
    38   18   37 1    
    39   18   88 1    
    40   19   20 am   BACKBONE|DICT|INTERRES
    41   19   89 1    
    42   20   21 2    
    43   20   22 1    
    44   22   23 1    
    45   22   24 1    
    46   22   90 1    
    47   23   91 1    
    48   23   92 1    
    49   23   93 1    
    50   24   25 am   BACKBONE|DICT|INTERRES
    51   24   94 1    
    52   25   26 2    
    53   25   27 1    
    54   27   28 1    
    55   27   29 1    
    56   27   95 1    
    57   28   96 1    
    58   28   97 1    
    59   28   98 1    
    60   29   30 am   BACKBONE|DICT|INTERRES
    61   29   99 1    
    62   30   31 2    
    63   30   32 1    
    64   32   33 1    
    65   32   34 1    
    66   32  100 1    
    67   33  101 1    
    68   33  102 1    
    69   33  103 1    
    70   34   35 am   BACKBONE|DICT|INTERRES
    71   34  104 1    
    72   35   36 2    
    73   37   38 2    
    74   37   39 am   BACKBONE|DICT|INTERRES
    75   39   40 1    
    76   39  105 1    
    77   40   41 1    
    78   40   42 1    
    79   40  106 1    
    80   41  107 1    
    81   41  108 1    
    82   41  109 1    
    83   42   43 2    
    84   42   44 am   BACKBONE|DICT|INTERRES
    85   44   45 1    
    86   44  110 1    
    87   45   46 1    
    88   45   47 1    
    89   45  111 1    
    90   46  112 1    
    91   46  113 1    
    92   46  114 1    
    93   47   48 2    
    94   47   49 am   BACKBONE|DICT|INTERRES
    95   49   50 1    
    96   49  115 1    
    97   50   51 1    
    98   50   52 1    
    99   50  116 1    
   100   51  117 1    
   101   51  118 1    
   102   51  119 1    
   103   52   53 2    
   104   52   54 am   BACKBONE|DICT|INTERRES
   105   54   55 1    
   106   54  120 1    
   107   55   56 1    
   108   55   57 1    
   109   55  121 1    
   110   56  122 1    
   111   56  123 1    
   112   56  124 1    
   113   57   58 2    
   114   57   59 am   BACKBONE|DICT|INTERRES
   115   59   60 1    
   116   59  125 1    
   117   60   61 1    
   118   60   62 1    
   119   60  126 1    
   120   61  127 1    
   121   61  128 1    
   122   61  129 1    
   123   62   63 2    
   124   62   64 am   BACKBONE|DICT|INTERRES
   125   64   65 1    
   126   64  130 1    
   127   65   66 1    
   128   65   69 1    
   129   65  131 1    
   130   66   67 am   BACKBONE|DICT|INTERRES
   131   66   68 2    
   132   67  132 1    
   133   67  133 1    
   134   69   70 1    
   135   69  134 1    
   136   69  135 1    
   137   70   71 1    
   138   71  136 1    
   139   71  137 1    
@<TRIPOS>SUBSTRUCTURE
     1 UNK         1 GROUP             0       ****    0 ROOT    
