@<TRIPOS>MOLECULE
3R137
137   139    1
SMALL
USER_CHARGES


@<TRIPOS>ATOM
      1 CA         24.0919   -7.4966    0.0620 C.3       0 UNK        -0.2020 
      2 C          24.9216   -6.2225    0.1181 C.2       0 UNK         0.4855 
      3 O          24.9515   -5.5563    1.1536 O.2       0 UNK        -0.5197 
      4 N          25.6033   -5.8842   -0.9831 N.am      1 UNK        -0.4892 
      5 CA         26.4119   -4.6685   -1.1260 C.3       1 UNK         0.0835 
      6 C6         27.3539   -4.7420   -2.3529 C.3       12 UNK        -0.0855 
      7 S7         28.5209   -6.1426   -2.2705 S.3       12 UNK        -0.2931 
      8 C8         29.8421   -5.4833   -1.2006 C.3       12 UNK         0.0378 
      9 C9         30.5488   -4.2865   -1.8210 C.ar      12 UNK        -0.0802 
     10 C10        31.3911   -4.4632   -2.9213 C.ar      12 UNK        -0.0944 
     11 C11        32.0477   -3.3716   -3.4967 C.ar      12 UNK        -0.0787 
     12 C12        31.8529   -2.0926   -2.9637 C.ar      12 UNK        -0.0862 
     13 C13        31.0028   -1.9009   -1.8716 C.ar      12 UNK        -0.0733 
     14 C14        30.3656   -3.0043   -1.2949 C.ar      12 UNK        -0.0832 
     15 C15        30.7651   -0.5069   -1.3101 C.3       12 UNK         0.0240 
     16 S16        29.0559    0.0290   -1.6282 S.3       12 UNK        -0.2522 
     17 C17        29.2654    1.4370   -2.7752 C.3       12 UNK        -0.0967 
     18 CA         29.5419    1.0568   -4.2564 C.3       5 UNK         0.0660 
     19 N          28.7279   -0.0739   -4.6966 N.am      5 UNK        -0.4015 
     20 C          28.7599   -0.6690   -5.8955 C.2       4 UNK         0.4946 
     21 O          29.5483   -0.3740   -6.7954 O.2       4 UNK        -0.5353 
     22 CA         27.6890   -1.7466   -6.1453 C.3       4 UNK         0.0277 
     23 CB         28.2904   -3.1429   -5.9156 C.3       4 UNK        -0.1981 
     24 N          26.4594   -1.6100   -5.3436 N.am      4 UNK        -0.4209 
     25 C          25.6803   -0.5181   -5.2651 C.2       3 UNK         0.4942 
     26 O          25.9638    0.5675   -5.7703 O.2       3 UNK        -0.5208 
     27 CA         24.3868   -0.6481   -4.4512 C.3       3 UNK         0.0250 
     28 CB         23.4050   -1.6305   -5.1114 C.3       3 UNK        -0.1990 
     29 N          24.6503   -1.0559   -3.0727 N.am      3 UNK        -0.4232 
     30 C          25.2344   -0.2935   -2.1405 C.2       2 UNK         0.4993 
     31 O          25.5959    0.8662   -2.3380 O.2       2 UNK        -0.5286 
     32 CA         25.4593   -0.9211   -0.7521 C.3       2 UNK         0.0209 
     33 CB         24.1708   -0.8742    0.0930 C.3       2 UNK        -0.1931 
     34 N          26.0473   -2.2716   -0.7678 N.am      2 UNK        -0.4546 
     35 C          25.5180   -3.4165   -1.2252 C.2       1 UNK         0.5154 
     36 O          24.4081   -3.4977   -1.7598 O.2       1 UNK        -0.5181 
     37 C          29.3775    2.3080   -5.1524 C.2       5 UNK         0.5014 
     38 O          30.3121    3.1075   -5.2240 O.2       5 UNK        -0.5248 
     39 N          28.2061    2.4729   -5.7907 N.am      6 UNK        -0.4434 
     40 CA         27.8697    3.6317   -6.6220 C.3       6 UNK         0.0363 
     41 CB         27.0112    4.6114   -5.8046 C.3       6 UNK        -0.1936 
     42 C          27.1613    3.2657   -7.9363 C.2       6 UNK         0.5081 
     43 O          27.3370    3.9941   -8.9143 O.2       6 UNK        -0.5248 
     44 N          26.3723    2.1796   -7.9621 N.am      7 UNK        -0.4718 
     45 CA         25.5832    1.7236   -9.1140 C.3       7 UNK         0.0273 
     46 CB         24.7907    0.4611   -8.7362 C.3       7 UNK        -0.1935 
     47 C          26.4624    1.4631  -10.3451 C.2       7 UNK         0.5018 
     48 O          27.3190    0.5774  -10.3015 O.2       7 UNK        -0.5186 
     49 N          26.2850    2.2987  -11.3807 N.am      8 UNK        -0.4240 
     50 CA         27.0782    2.3666  -12.6185 C.3       8 UNK         0.0235 
     51 CB         26.8123    1.1197  -13.4891 C.3       8 UNK        -0.2000 
     52 C          28.5896    2.5987  -12.3904 C.2       8 UNK         0.4941 
     53 O          29.3826    2.3271  -13.2935 O.2       8 UNK        -0.5273 
     54 N          28.9618    3.0623  -11.1849 N.am      9 UNK        -0.4262 
     55 CA         30.3181    3.1380  -10.6352 C.3       9 UNK         0.0264 
     56 CB         31.1149    4.2705  -11.3166 C.3       9 UNK        -0.1955 
     57 C          31.0604    1.7831  -10.6535 C.2       9 UNK         0.5031 
     58 O          32.2759    1.7723  -10.8564 O.2       9 UNK        -0.5390 
     59 N          30.3324    0.6695  -10.4501 N.am      10 UNK        -0.4204 
     60 CA         30.8316   -0.7088  -10.5671 C.3       10 UNK         0.0237 
     61 CB         29.7059   -1.7040  -10.2396 C.3       10 UNK        -0.1985 
     62 C          32.0872   -1.0082   -9.7303 C.2       10 UNK         0.4970 
     63 O          33.0481   -1.5626  -10.2663 O.2       10 UNK        -0.4914 
     64 N          32.0668   -0.6008   -8.4575 N.am      11 UNK        -0.4285 
     65 CA         33.2165   -0.6491   -7.5410 C.3       11 UNK         0.1007 
     66 C          33.9984    0.6966   -7.4598 C.2       11 UNK         0.5703 
     67 N          33.7999    1.6493   -8.3631 N.am      11 UNK        -0.7361 
     68 O          34.8251    0.8806   -6.5692 O.2       11 UNK        -0.4986 
     69 C69        32.7916   -1.1747   -6.1471 C.3       12 UNK        -0.0947 
     70 S70        32.2468   -2.9155   -6.2197 S.3       12 UNK        -0.2240 
     71 C71        32.9681   -3.5846   -4.6895 C.3       12 UNK         0.0194 
     72 H72        24.4248   -8.1955    0.8290 H         1 UNK         0.0906 
     73 H73        23.0417   -7.2681    0.2414 H         1 UNK         0.0906 
     74 H74        24.1705   -7.9926   -0.9053 H         1 UNK         0.0906 
     75 H75        25.5390   -6.4628   -1.8084 H         1 UNK         0.3140 
     76 H76        27.0214   -4.5706   -0.2250 H         1 UNK         0.1085 
     77 H77        26.7721   -4.8512   -3.2705 H         1 UNK         0.0836 
     78 H78        27.9176   -3.8156   -2.4729 H         1 UNK         0.0836 
     79 H79        30.5723   -6.2733   -1.0190 H         1 UNK         0.0731 
     80 H80        29.4251   -5.2285   -0.2253 H         1 UNK         0.0731 
     81 H81        31.5304   -5.4549   -3.3301 H         1 UNK         0.1312 
     82 H82        32.3567   -1.2441   -3.4028 H         1 UNK         0.1406 
     83 H83        29.7155   -2.8569   -0.4435 H         1 UNK         0.1631 
     84 H84        31.4731    0.2103   -1.7279 H         1 UNK         0.0717 
     85 H85        30.9385   -0.5174   -0.2332 H         1 UNK         0.0717 
     86 H86        30.0542    2.0904   -2.3973 H         1 UNK         0.0934 
     87 H87        28.3431    2.0184   -2.7026 H         1 UNK         0.0934 
     88 H88        30.5826    0.7383   -4.3335 H         1 UNK         0.0739 
     89 H89        28.0451   -0.3955   -4.0268 H         1 UNK         0.3093 
     90 H90        27.3975   -1.6651   -7.1945 H         1 UNK         0.0818 
     91 H91        28.6191   -3.2783   -4.8841 H         1 UNK         0.0819 
     92 H92        27.5771   -3.9325   -6.1515 H         1 UNK         0.0819 
     93 H93        29.1623   -3.2976   -6.5530 H         1 UNK         0.0819 
     94 H94        26.1401   -2.4453   -4.8763 H         1 UNK         0.3041 
     95 H95        23.9124    0.3356   -4.4282 H         1 UNK         0.0784 
     96 H96        23.2134   -1.3534   -6.1492 H         1 UNK         0.0793 
     97 H97        23.7822   -2.6537   -5.1095 H         1 UNK         0.0793 
     98 H98        22.4443   -1.6310   -4.5959 H         1 UNK         0.0793 
     99 H99        24.3810   -1.9980   -2.7951 H         1 UNK         0.3024 
    100 H100       26.1947   -0.2880   -0.2517 H         1 UNK         0.1171 
    101 H101       24.3479   -1.2384    1.1050 H         1 UNK         0.0786 
    102 H102       23.7991    0.1479    0.1773 H         1 UNK         0.0786 
    103 H103       23.3706   -1.4731   -0.3429 H         1 UNK         0.0786 
    104 H104       26.9833   -2.3127   -0.3889 H         1 UNK         0.2977 
    105 H105       27.4895    1.7587   -5.6903 H         1 UNK         0.3127 
    106 H106       28.7861    4.1496   -6.9134 H         1 UNK         0.0770 
    107 H107       26.0859    4.1456   -5.4630 H         1 UNK         0.0814 
    108 H108       26.7392    5.4849   -6.3991 H         1 UNK         0.0814 
    109 H109       27.5490    4.9719   -4.9276 H         1 UNK         0.0814 
    110 H110       26.2646    1.6203   -7.1176 H         1 UNK         0.2983 
    111 H111       24.8654    2.5119   -9.3500 H         1 UNK         0.0947 
    112 H112       24.1890    0.1110   -9.5758 H         1 UNK         0.0806 
    113 H113       24.1090    0.6532   -7.9076 H         1 UNK         0.0806 
    114 H114       25.4517   -0.3566   -8.4460 H         1 UNK         0.0806 
    115 H115       25.5826    3.0198  -11.2852 H         1 UNK         0.3000 
    116 H116       26.7196    3.2394  -13.1662 H         1 UNK         0.0850 
    117 H117       27.2792    1.2170  -14.4700 H         1 UNK         0.0810 
    118 H118       25.7454    0.9708  -13.6549 H         1 UNK         0.0810 
    119 H119       27.2101    0.2145  -13.0287 H         1 UNK         0.0810 
    120 H120       28.2258    3.2951  -10.5225 H         1 UNK         0.3040 
    121 H121       30.2036    3.4020   -9.5827 H         1 UNK         0.0766 
    122 H122       30.5766    5.2171  -11.2710 H         1 UNK         0.0812 
    123 H123       31.3156    4.0480  -12.3651 H         1 UNK         0.0812 
    124 H124       32.0772    4.4231  -10.8264 H         1 UNK         0.0812 
    125 H125       29.3303    0.7638  -10.3051 H         1 UNK         0.3205 
    126 H126       31.1062   -0.8511  -11.6142 H         1 UNK         0.0754 
    127 H127       30.0615   -2.7337  -10.2964 H         1 UNK         0.0769 
    128 H128       28.8781   -1.6092  -10.9426 H         1 UNK         0.0769 
    129 H129       29.3092   -1.5494   -9.2357 H         1 UNK         0.0769 
    130 H130       31.2099   -0.2174   -8.0727 H         1 UNK         0.2981 
    131 H131       33.9504   -1.3572   -7.9296 H         1 UNK         0.0541 
    132 H132       34.3265    2.5045   -8.2885 H         1 UNK         0.3459 
    133 H133       33.1875    1.5073   -9.1598 H         1 UNK         0.3459 
    134 H134       33.6228   -1.1017   -5.4450 H         1 UNK         0.0612 
    135 H135       31.9880   -0.5662   -5.7338 H         1 UNK         0.0612 
    136 H136       33.9450   -3.1406   -4.4949 H         1 UNK         0.0624 
    137 H137       33.1498   -4.6497   -4.8405 H         1 UNK         0.0624 
@<TRIPOS>BOND
     1    1    2 1    
     2    1   72 1    
     3    1   73 1    
     4    1   74 1    
     5    2    3 2    
     6    2    4 am   BACKBONE|DICT|INTERRES
     7    4    5 1    
     8    4   75 1    
     9    5    6 1    
    10    5   35 1    
    11    5   76 1    
    12    6    7 1    
    13    6   77 1    
    14    6   78 1    
    15    7    8 1    
    16    8    9 1    
    17    8   79 1    
    18    8   80 1    
    19    9   10 ar   
    20    9   14 ar   
    21   10   11 ar   
    22   10   81 1    
    23   11   12 ar   
    24   11   71 1    
    25   12   13 ar   
    26   12   82 1    
    27   13   14 ar   
    28   13   15 1    
    29   14   83 1    
    30   15   16 1    
    31   15   84 1    
    32   15   85 1    
    33   16   17 1    
    34   17   18 1    
    35   17   86 1    
    36   17   87 1    
    37   18   19 1    
    38   18   37 1    
    39   18   88 1    
    40   19   20 am   BACKBONE|DICT|INTERRES
    41   19   89 1    
    42   20   21 2    
    43   20   22 1    
    44   22   23 1    
    45   22   24 1    
    46   22   90 1    
    47   23   91 1    
    48   23   92 1    
    49   23   93 1    
    50   24   25 am   BACKBONE|DICT|INTERRES
    51   24   94 1    
    52   25   26 2    
    53   25   27 1    
    54   27   28 1    
    55   27   29 1    
    56   27   95 1    
    57   28   96 1    
    58   28   97 1    
    59   28   98 1    
    60   29   30 am   BACKBONE|DICT|INTERRES
    61   29   99 1    
    62   30   31 2    
    63   30   32 1    
    64   32   33 1    
    65   32   34 1    
    66   32  100 1    
    67   33  101 1    
    68   33  102 1    
    69   33  103 1    
    70   34   35 am   BACKBONE|DICT|INTERRES
    71   34  104 1    
    72   35   36 2    
    73   37   38 2    
    74   37   39 am   BACKBONE|DICT|INTERRES
    75   39   40 1    
    76   39  105 1    
    77   40   41 1    
    78   40   42 1    
    79   40  106 1    
    80   41  107 1    
    81   41  108 1    
    82   41  109 1    
    83   42   43 2    
    84   42   44 am   BACKBONE|DICT|INTERRES
    85   44   45 1    
    86   44  110 1    
    87   45   46 1    
    88   45   47 1    
    89   45  111 1    
    90   46  112 1    
    91   46  113 1    
    92   46  114 1    
    93   47   48 2    
    94   47   49 am   BACKBONE|DICT|INTERRES
    95   49   50 1    
    96   49  115 1    
    97   50   51 1    
    98   50   52 1    
    99   50  116 1    
   100   51  117 1    
   101   51  118 1    
   102   51  119 1    
   103   52   53 2    
   104   52   54 am   BACKBONE|DICT|INTERRES
   105   54   55 1    
   106   54  120 1    
   107   55   56 1    
   108   55   57 1    
   109   55  121 1    
   110   56  122 1    
   111   56  123 1    
   112   56  124 1    
   113   57   58 2    
   114   57   59 am   BACKBONE|DICT|INTERRES
   115   59   60 1    
   116   59  125 1    
   117   60   61 1    
   118   60   62 1    
   119   60  126 1    
   120   61  127 1    
   121   61  128 1    
   122   61  129 1    
   123   62   63 2    
   124   62   64 am   BACKBONE|DICT|INTERRES
   125   64   65 1    
   126   64  130 1    
   127   65   66 1    
   128   65   69 1    
   129   65  131 1    
   130   66   67 am   BACKBONE|DICT|INTERRES
   131   66   68 2    
   132   67  132 1    
   133   67  133 1    
   134   69   70 1    
   135   69  134 1    
   136   69  135 1    
   137   70   71 1    
   138   71  136 1    
   139   71  137 1    
@<TRIPOS>SUBSTRUCTURE
     1 UNK         1 GROUP             0       ****    0 ROOT    
