@<TRIPOS>MOLECULE
3R137
137   139    1
SMALL
USER_CHARGES


@<TRIPOS>ATOM
      1 CA         29.6055   -4.2927   -4.8904 C.3       0 UNK        -0.2020 
      2 C          28.8219   -5.0230   -3.8097 C.2       0 UNK         0.4855 
      3 O          28.2919   -6.1042   -4.0651 O.2       0 UNK        -0.5197 
      4 N          28.7516   -4.4471   -2.6026 N.am      1 UNK        -0.4892 
      5 CA         28.0986   -5.0437   -1.4274 C.3       1 UNK         0.0835 
      6 C6         28.5822   -4.3848   -0.1118 C.3       12 UNK        -0.0855 
      7 S7         30.3622   -4.6626    0.1825 S.3       12 UNK        -0.2931 
      8 C8         31.0113   -2.9646    0.2930 C.3       12 UNK         0.0378 
      9 C9         31.1107   -2.2910   -1.0685 C.ar      12 UNK        -0.0802 
     10 C10        32.1023   -2.6855   -1.9726 C.ar      12 UNK        -0.0944 
     11 C11        32.2297   -2.0461   -3.2089 C.ar      12 UNK        -0.0787 
     12 C12        31.3624   -1.0012   -3.5364 C.ar      12 UNK        -0.0862 
     13 C13        30.3616   -0.6037   -2.6459 C.ar      12 UNK        -0.0733 
     14 C14        30.2401   -1.2514   -1.4122 C.ar      12 UNK        -0.0832 
     15 C15        29.4188    0.5335   -3.0127 C.3       12 UNK         0.0240 
     16 S16        27.7532   -0.0784   -3.4112 S.3       12 UNK        -0.2522 
     17 C17        28.0514   -1.0118   -4.9581 C.3       12 UNK        -0.0967 
     18 CA         27.3222   -0.4680   -6.2110 C.3       5 UNK         0.0660 
     19 N          25.8636   -0.6066   -6.1081 N.am      5 UNK        -0.4015 
     20 C          24.9817   -0.2989   -7.0735 C.2       4 UNK         0.4946 
     21 O          25.3103    0.1982   -8.1505 O.2       4 UNK        -0.5353 
     22 CA         23.4850   -0.5799   -6.8313 C.3       4 UNK         0.0277 
     23 CB         23.0174   -1.7535   -7.7072 C.3       4 UNK        -0.1981 
     24 N          23.1379   -0.8590   -5.4370 N.am      4 UNK        -0.4209 
     25 C          23.1791    0.0338   -4.4393 C.2       3 UNK         0.4942 
     26 O          23.4361    1.2270   -4.6052 O.2       3 UNK        -0.5208 
     27 CA         22.9241   -0.4903   -3.0106 C.3       3 UNK         0.0250 
     28 CB         21.4740   -0.1981   -2.5908 C.3       3 UNK        -0.1990 
     29 N          23.2172   -1.9141   -2.7658 N.am      3 UNK        -0.4232 
     30 C          24.3671   -2.5427   -3.0493 C.2       2 UNK         0.4993 
     31 O          25.2698   -2.0495   -3.7249 O.2       2 UNK        -0.5286 
     32 CA         24.5432   -3.9694   -2.5256 C.3       2 UNK         0.0209 
     33 CB         23.9531   -4.9964   -3.5081 C.3       2 UNK        -0.1931 
     34 N          25.9778   -4.1960   -2.3680 N.am      2 UNK        -0.4546 
     35 C          26.5541   -5.0337   -1.5005 C.2       1 UNK         0.5154 
     36 O          25.9130   -5.7784   -0.7566 O.2       1 UNK        -0.5181 
     37 C          27.8041    0.9502   -6.5788 C.2       5 UNK         0.5014 
     38 O          28.7716    1.0803   -7.3309 O.2       5 UNK        -0.5248 
     39 N          27.1132    1.9757   -6.0621 N.am      6 UNK        -0.4434 
     40 CA         27.3878    3.3859   -6.3360 C.3       6 UNK         0.0363 
     41 CB         26.7116    4.2511   -5.2612 C.3       6 UNK        -0.1936 
     42 C          26.9361    3.8181   -7.7408 C.2       6 UNK         0.5081 
     43 O          27.5834    4.6749   -8.3414 O.2       6 UNK        -0.5248 
     44 N          25.8497    3.2165   -8.2459 N.am      7 UNK        -0.4718 
     45 CA         25.3301    3.4473   -9.5964 C.3       7 UNK         0.0273 
     46 CB         23.8552    3.0181   -9.6657 C.3       7 UNK        -0.1935 
     47 C          26.1675    2.7115  -10.6531 C.2       7 UNK         0.5018 
     48 O          26.4433    3.2756  -11.7123 O.2       7 UNK        -0.5186 
     49 N          26.5811    1.4785  -10.3290 N.am      8 UNK        -0.4240 
     50 CA         27.4925    0.6582  -11.1292 C.3       8 UNK         0.0235 
     51 CB         27.4564   -0.7845  -10.5980 C.3       8 UNK        -0.2000 
     52 C          28.9404    1.1827  -11.1356 C.2       8 UNK         0.4941 
     53 O          29.6839    0.8593  -12.0625 O.2       8 UNK        -0.5273 
     54 N          29.3093    1.9554  -10.1014 N.am      9 UNK        -0.4262 
     55 CA         30.6479    2.4701   -9.7924 C.3       9 UNK         0.0264 
     56 CB         31.1214    3.4767  -10.8625 C.3       9 UNK        -0.1955 
     57 C          31.6453    1.3238   -9.5402 C.2       9 UNK         0.5031 
     58 O          32.7227    1.2908  -10.1394 O.2       9 UNK        -0.5390 
     59 N          31.2401    0.3808   -8.6790 N.am      10 UNK        -0.4204 
     60 CA         32.0181   -0.8051   -8.3195 C.3       10 UNK         0.0237 
     61 CB         31.0954   -1.8214   -7.6276 C.3       10 UNK        -0.1985 
     62 C          33.2140   -0.4536   -7.4174 C.2       10 UNK         0.4970 
     63 O          33.0949    0.4390   -6.5751 O.2       10 UNK        -0.4914 
     64 N          34.3111   -1.2023   -7.5992 N.am      11 UNK        -0.4285 
     65 CA         35.6063   -1.0983   -6.9025 C.3       11 UNK         0.1007 
     66 C          36.2103    0.3397   -6.8291 C.2       11 UNK         0.5703 
     67 N          36.9583    0.6794   -5.7873 N.am      11 UNK        -0.7361 
     68 O          36.0686    1.1315   -7.7591 O.2       11 UNK        -0.4986 
     69 C69        35.6739   -1.9529   -5.5985 C.3       12 UNK        -0.0947 
     70 S70        34.7031   -1.3280   -4.1856 S.3       12 UNK        -0.2240 
     71 C71        33.2981   -2.4795   -4.1981 C.3       12 UNK         0.0194 
     72 H72        28.9675   -4.0930   -5.7509 H         1 UNK         0.0906 
     73 H73        30.4438   -4.9042   -5.2230 H         1 UNK         0.0906 
     74 H74        30.0030   -3.3448   -4.5325 H         1 UNK         0.0906 
     75 H75        29.2372   -3.5763   -2.4341 H         1 UNK         0.3140 
     76 H76        28.3849   -6.0977   -1.3937 H         1 UNK         0.1085 
     77 H77        28.0501   -4.8015    0.7461 H         1 UNK         0.0836 
     78 H78        28.3598   -3.3163   -0.1130 H         1 UNK         0.0836 
     79 H79        30.3942   -2.3806    0.9779 H         1 UNK         0.0731 
     80 H80        32.0052   -3.0012    0.7415 H         1 UNK         0.0731 
     81 H81        32.7773   -3.4885   -1.7088 H         1 UNK         0.1312 
     82 H82        31.4736   -0.4963   -4.4868 H         1 UNK         0.1406 
     83 H83        29.4712   -0.9364   -0.7192 H         1 UNK         0.1631 
     84 H84        29.8044    1.1079   -3.8569 H         1 UNK         0.0717 
     85 H85        29.3485    1.2294   -2.1756 H         1 UNK         0.0717 
     86 H86        29.1203   -1.0588   -5.1528 H         1 UNK         0.0934 
     87 H87        27.7458   -2.0431   -4.7819 H         1 UNK         0.0934 
     88 H88        27.6144   -1.1065   -7.0471 H         1 UNK         0.0739 
     89 H89        25.5274   -1.0269   -5.2427 H         1 UNK         0.3093 
     90 H90        22.9399    0.3146   -7.1404 H         1 UNK         0.0818 
     91 H91        23.2280   -1.5631   -8.7608 H         1 UNK         0.0819 
     92 H92        23.5198   -2.6835   -7.4380 H         1 UNK         0.0819 
     93 H93        21.9426   -1.9125   -7.6187 H         1 UNK         0.0819 
     94 H94        22.9340   -1.8192   -5.2017 H         1 UNK         0.3041 
     95 H95        23.5860    0.0786   -2.3544 H         1 UNK         0.0784 
     96 H96        21.2294    0.8560   -2.7319 H         1 UNK         0.0793 
     97 H97        20.7605   -0.7791   -3.1766 H         1 UNK         0.0793 
     98 H98        21.3102   -0.4257   -1.5373 H         1 UNK         0.0793 
     99 H99        22.5177   -2.4195   -2.2405 H         1 UNK         0.3024 
    100 H100       24.0504   -4.0532   -1.5541 H         1 UNK         0.1171 
    101 H101       22.8831   -4.8379   -3.6480 H         1 UNK         0.0786 
    102 H102       24.4264   -4.9317   -4.4889 H         1 UNK         0.0786 
    103 H103       24.0837   -6.0149   -3.1419 H         1 UNK         0.0786 
    104 H104       26.5572   -3.5751   -2.9202 H         1 UNK         0.2977 
    105 H105       26.3429    1.7664   -5.4420 H         1 UNK         0.3127 
    106 H106       28.4669    3.5435   -6.2719 H         1 UNK         0.0770 
    107 H107       25.6282    4.1233   -5.2608 H         1 UNK         0.0814 
    108 H108       26.9155    5.3098   -5.4279 H         1 UNK         0.0814 
    109 H109       27.0793    4.0043   -4.2650 H         1 UNK         0.0814 
    110 H110       25.4133    2.4768   -7.7125 H         1 UNK         0.2983 
    111 H111       25.3830    4.5168   -9.8136 H         1 UNK         0.0947 
    112 H112       23.4410    3.2121  -10.6560 H         1 UNK         0.0806 
    113 H113       23.2479    3.5694   -8.9477 H         1 UNK         0.0806 
    114 H114       23.7289    1.9538   -9.4641 H         1 UNK         0.0806 
    115 H115       26.2319    1.0651   -9.4651 H         1 UNK         0.3000 
    116 H116       27.1347    0.6582  -12.1610 H         1 UNK         0.0850 
    117 H117       28.0919   -1.4384  -11.1968 H         1 UNK         0.0810 
    118 H118       26.4465   -1.1943  -10.6294 H         1 UNK         0.0810 
    119 H119       27.8080   -0.8414   -9.5672 H         1 UNK         0.0810 
    120 H120       28.6243    2.0925   -9.3695 H         1 UNK         0.3040 
    121 H121       30.5565    3.0111   -8.8490 H         1 UNK         0.0766 
    122 H122       31.2792    2.9996  -11.8302 H         1 UNK         0.0812 
    123 H123       32.0660    3.9372  -10.5710 H         1 UNK         0.0812 
    124 H124       30.3966    4.2794  -10.9979 H         1 UNK         0.0812 
    125 H125       30.3594    0.5280   -8.1898 H         1 UNK         0.3205 
    126 H126       32.3901   -1.2518   -9.2442 H         1 UNK         0.0754 
    127 H127       31.6213   -2.7557   -7.4270 H         1 UNK         0.0769 
    128 H128       30.2305   -2.0623   -8.2461 H         1 UNK         0.0769 
    129 H129       30.7327   -1.4412   -6.6746 H         1 UNK         0.0769 
    130 H130       34.2879   -1.8940   -8.3339 H         1 UNK         0.2981 
    131 H131       36.2897   -1.5951   -7.5921 H         1 UNK         0.0541 
    132 H132       37.3711    1.5982   -5.7556 H         1 UNK         0.3459 
    133 H133       37.0735    0.0461   -5.0117 H         1 UNK         0.3459 
    134 H134       36.7102   -2.0461   -5.2705 H         1 UNK         0.0612 
    135 H135       35.3601   -2.9741   -5.8193 H         1 UNK         0.0612 
    136 H136       32.8698   -2.5239   -5.1997 H         1 UNK         0.0624 
    137 H137       33.6531   -3.4850   -3.9667 H         1 UNK         0.0624 
@<TRIPOS>BOND
     1    1    2 1    
     2    1   72 1    
     3    1   73 1    
     4    1   74 1    
     5    2    3 2    
     6    2    4 am   BACKBONE|DICT|INTERRES
     7    4    5 1    
     8    4   75 1    
     9    5    6 1    
    10    5   35 1    
    11    5   76 1    
    12    6    7 1    
    13    6   77 1    
    14    6   78 1    
    15    7    8 1    
    16    8    9 1    
    17    8   79 1    
    18    8   80 1    
    19    9   10 ar   
    20    9   14 ar   
    21   10   11 ar   
    22   10   81 1    
    23   11   12 ar   
    24   11   71 1    
    25   12   13 ar   
    26   12   82 1    
    27   13   14 ar   
    28   13   15 1    
    29   14   83 1    
    30   15   16 1    
    31   15   84 1    
    32   15   85 1    
    33   16   17 1    
    34   17   18 1    
    35   17   86 1    
    36   17   87 1    
    37   18   19 1    
    38   18   37 1    
    39   18   88 1    
    40   19   20 am   BACKBONE|DICT|INTERRES
    41   19   89 1    
    42   20   21 2    
    43   20   22 1    
    44   22   23 1    
    45   22   24 1    
    46   22   90 1    
    47   23   91 1    
    48   23   92 1    
    49   23   93 1    
    50   24   25 am   BACKBONE|DICT|INTERRES
    51   24   94 1    
    52   25   26 2    
    53   25   27 1    
    54   27   28 1    
    55   27   29 1    
    56   27   95 1    
    57   28   96 1    
    58   28   97 1    
    59   28   98 1    
    60   29   30 am   BACKBONE|DICT|INTERRES
    61   29   99 1    
    62   30   31 2    
    63   30   32 1    
    64   32   33 1    
    65   32   34 1    
    66   32  100 1    
    67   33  101 1    
    68   33  102 1    
    69   33  103 1    
    70   34   35 am   BACKBONE|DICT|INTERRES
    71   34  104 1    
    72   35   36 2    
    73   37   38 2    
    74   37   39 am   BACKBONE|DICT|INTERRES
    75   39   40 1    
    76   39  105 1    
    77   40   41 1    
    78   40   42 1    
    79   40  106 1    
    80   41  107 1    
    81   41  108 1    
    82   41  109 1    
    83   42   43 2    
    84   42   44 am   BACKBONE|DICT|INTERRES
    85   44   45 1    
    86   44  110 1    
    87   45   46 1    
    88   45   47 1    
    89   45  111 1    
    90   46  112 1    
    91   46  113 1    
    92   46  114 1    
    93   47   48 2    
    94   47   49 am   BACKBONE|DICT|INTERRES
    95   49   50 1    
    96   49  115 1    
    97   50   51 1    
    98   50   52 1    
    99   50  116 1    
   100   51  117 1    
   101   51  118 1    
   102   51  119 1    
   103   52   53 2    
   104   52   54 am   BACKBONE|DICT|INTERRES
   105   54   55 1    
   106   54  120 1    
   107   55   56 1    
   108   55   57 1    
   109   55  121 1    
   110   56  122 1    
   111   56  123 1    
   112   56  124 1    
   113   57   58 2    
   114   57   59 am   BACKBONE|DICT|INTERRES
   115   59   60 1    
   116   59  125 1    
   117   60   61 1    
   118   60   62 1    
   119   60  126 1    
   120   61  127 1    
   121   61  128 1    
   122   61  129 1    
   123   62   63 2    
   124   62   64 am   BACKBONE|DICT|INTERRES
   125   64   65 1    
   126   64  130 1    
   127   65   66 1    
   128   65   69 1    
   129   65  131 1    
   130   66   67 am   BACKBONE|DICT|INTERRES
   131   66   68 2    
   132   67  132 1    
   133   67  133 1    
   134   69   70 1    
   135   69  134 1    
   136   69  135 1    
   137   70   71 1    
   138   71  136 1    
   139   71  137 1    
@<TRIPOS>SUBSTRUCTURE
     1 UNK         1 GROUP             0       ****    0 ROOT    
