@<TRIPOS>MOLECULE
3R137
137   139    1
SMALL
USER_CHARGES


@<TRIPOS>ATOM
      1 CA         29.5650   -0.5470   -2.4799 C.3       0 UNK        -0.2020 
      2 C          29.7450   -0.6146   -0.9646 C.2       0 UNK         0.4855 
      3 O          30.3345    0.2967   -0.3873 O.2       0 UNK        -0.5197 
      4 N          29.2744   -1.6638   -0.2758 N.am      1 UNK        -0.4892 
      5 CA         28.4877   -2.7865   -0.8003 C.3       1 UNK         0.0835 
      6 C6         28.4604   -3.9923    0.1759 C.3       12 UNK        -0.0855 
      7 S7         30.1109   -4.5800    0.6820 S.3       12 UNK        -0.2931 
      8 C8         30.4916   -5.7979   -0.6198 C.3       12 UNK         0.0378 
      9 C9         30.8306   -5.1296   -1.9454 C.ar      12 UNK        -0.0802 
     10 C10        31.9076   -4.2417   -2.0209 C.ar      12 UNK        -0.0944 
     11 C11        32.2392   -3.6183   -3.2260 C.ar      12 UNK        -0.0787 
     12 C12        31.4922   -3.9111   -4.3712 C.ar      12 UNK        -0.0862 
     13 C13        30.4013   -4.7836   -4.3094 C.ar      12 UNK        -0.0733 
     14 C14        30.0787   -5.3969   -3.0944 C.ar      12 UNK        -0.0832 
     15 C15        29.5739   -5.0635   -5.5578 C.3       12 UNK         0.0240 
     16 S16        27.9414   -4.2555   -5.4930 S.3       12 UNK        -0.2522 
     17 C17        28.3869   -2.4874   -5.4602 C.3       12 UNK        -0.0967 
     18 CA         27.7851   -1.6691   -6.6286 C.3       5 UNK         0.0660 
     19 N          26.3237   -1.7748   -6.7069 N.am      5 UNK        -0.4015 
     20 C          25.5718   -1.3154   -7.7183 C.2       4 UNK         0.4946 
     21 O          26.0287   -0.7744   -8.7235 O.2       4 UNK        -0.5353 
     22 CA         24.0461   -1.4437   -7.5682 C.3       4 UNK         0.0277 
     23 CB         23.5817   -2.8610   -7.9403 C.3       4 UNK        -0.1981 
     24 N          23.5792   -1.1094   -6.2211 N.am      4 UNK        -0.4209 
     25 C          23.6746    0.1067   -5.6625 C.2       3 UNK         0.4942 
     26 O          24.0980    1.0995   -6.2506 O.2       3 UNK        -0.5208 
     27 CA         23.2934    0.2223   -4.1761 C.3       3 UNK         0.0250 
     28 CB         21.7921    0.5118   -4.0235 C.3       3 UNK        -0.1990 
     29 N          23.6518   -0.9645   -3.3910 N.am      3 UNK        -0.4232 
     30 C          24.8963   -1.4469   -3.2698 C.2       2 UNK         0.4993 
     31 O          25.8843   -0.9299   -3.7986 O.2       2 UNK        -0.5286 
     32 CA         25.0371   -2.7711   -2.5028 C.3       2 UNK         0.0209 
     33 CB         24.5674   -3.9472   -3.3767 C.3       2 UNK        -0.1931 
     34 N          26.4162   -3.0244   -2.0818 N.am      2 UNK        -0.4546 
     35 C          27.0415   -2.3524   -1.1078 C.2       1 UNK         0.5154 
     36 O          26.5071   -1.4677   -0.4337 O.2       1 UNK        -0.5181 
     37 C          28.2324   -0.2008   -6.5109 C.2       5 UNK         0.5014 
     38 O          29.2275    0.1849   -7.1242 O.2       5 UNK        -0.5248 
     39 N          27.4936    0.5934   -5.7239 N.am      6 UNK        -0.4434 
     40 CA         27.6949    2.0348   -5.5986 C.3       6 UNK         0.0363 
     41 CB         26.8381    2.5860   -4.4482 C.3       6 UNK        -0.1936 
     42 C          27.4090    2.7692   -6.9198 C.2       6 UNK         0.5081 
     43 O          28.2667    3.5180   -7.3871 O.2       6 UNK        -0.5248 
     44 N          26.2321    2.5192   -7.5106 N.am      7 UNK        -0.4718 
     45 CA         25.7696    3.1460   -8.7520 C.3       7 UNK         0.0273 
     46 CB         24.2944    2.7876   -8.9915 C.3       7 UNK        -0.1935 
     47 C          26.6104    2.7928   -9.9894 C.2       7 UNK         0.5018 
     48 O          26.8384    3.6715  -10.8222 O.2       7 UNK        -0.5186 
     49 N          27.0526    1.5340  -10.0934 N.am      8 UNK        -0.4240 
     50 CA         27.8499    1.0211  -11.2035 C.3       8 UNK         0.0235 
     51 CB         26.9614    0.1103  -12.0728 C.3       8 UNK        -0.2000 
     52 C          29.0777    0.2805  -10.6431 C.2       8 UNK         0.4941 
     53 O          29.0243   -0.9407  -10.5025 O.2       8 UNK        -0.5273 
     54 N          30.1775    0.9697  -10.3136 N.am      9 UNK        -0.4262 
     55 CA         30.4064    2.4129  -10.3715 C.3       9 UNK         0.0264 
     56 CB         30.8903    2.8214  -11.7796 C.3       9 UNK        -0.1955 
     57 C          31.4408    2.7326   -9.2877 C.2       9 UNK         0.5031 
     58 O          32.6334    2.8019   -9.5913 O.2       9 UNK        -0.5390 
     59 N          30.9693    2.8482   -8.0371 N.am      10 UNK        -0.4204 
     60 CA         31.7581    2.8941   -6.7986 C.3       10 UNK         0.0237 
     61 CB         32.5555    4.2117   -6.6941 C.3       10 UNK        -0.1985 
     62 C          32.6330    1.6331   -6.6562 C.2       10 UNK         0.4970 
     63 O          33.8596    1.7329   -6.5868 O.2       10 UNK        -0.4914 
     64 N          31.9629    0.4738   -6.6683 N.am      11 UNK        -0.4285 
     65 CA         32.5308   -0.8728   -6.8199 C.3       11 UNK         0.1007 
     66 C          32.9820   -1.1316   -8.2895 C.2       11 UNK         0.5703 
     67 N          33.9511   -2.0052   -8.5298 N.am      11 UNK        -0.7361 
     68 O          32.4130   -0.5861   -9.2336 O.2       11 UNK        -0.4986 
     69 C69        33.5860   -1.2570   -5.7376 C.3       12 UNK        -0.0947 
     70 S70        32.9932   -1.0416   -4.0232 S.3       12 UNK        -0.2240 
     71 C71        33.4157   -2.6496   -3.2718 C.3       12 UNK         0.0194 
     72 H72        28.5154   -0.4209   -2.7439 H         1 UNK         0.0906 
     73 H73        30.1112    0.3020   -2.8905 H         1 UNK         0.0906 
     74 H74        29.9543   -1.4433   -2.9611 H         1 UNK         0.0906 
     75 H75        29.4113   -1.6794    0.7244 H         1 UNK         0.3140 
     76 H76        28.9462   -3.1154   -1.7329 H         1 UNK         0.1085 
     77 H77        27.9122   -4.8295   -0.2606 H         1 UNK         0.0836 
     78 H78        27.9204   -3.7282    1.0875 H         1 UNK         0.0836 
     79 H79        31.3476   -6.3940   -0.3010 H         1 UNK         0.0731 
     80 H80        29.6578   -6.4932   -0.7267 H         1 UNK         0.0731 
     81 H81        32.4842   -4.0326   -1.1299 H         1 UNK         0.1312 
     82 H82        31.7521   -3.4482   -5.3110 H         1 UNK         0.1406 
     83 H83        29.2402   -6.0786   -3.0478 H         1 UNK         0.1631 
     84 H84        29.4306   -6.1399   -5.6616 H         1 UNK         0.0717 
     85 H85        30.0996   -4.7377   -6.4568 H         1 UNK         0.0717 
     86 H86        28.0610   -2.0911   -4.4992 H         1 UNK         0.0934 
     87 H87        29.4723   -2.3855   -5.4686 H         1 UNK         0.0934 
     88 H88        28.1922   -2.0579   -7.5649 H         1 UNK         0.0739 
     89 H89        25.8680   -2.1655   -5.8964 H         1 UNK         0.3093 
     90 H90        23.5857   -0.7396   -8.2649 H         1 UNK         0.0818 
     91 H91        22.4946   -2.9400   -7.9215 H         1 UNK         0.0819 
     92 H92        23.9058   -3.1236   -8.9485 H         1 UNK         0.0819 
     93 H93        23.9858   -3.6140   -7.2623 H         1 UNK         0.0819 
     94 H94        23.2018   -1.8625   -5.6656 H         1 UNK         0.3041 
     95 H95        23.8479    1.0671   -3.7625 H         1 UNK         0.0784 
     96 H96        21.5088    1.4031   -4.5854 H         1 UNK         0.0793 
     97 H97        21.1799   -0.3129   -4.3905 H         1 UNK         0.0793 
     98 H98        21.5260    0.6909   -2.9816 H         1 UNK         0.0793 
     99 H99        22.8923   -1.4486   -2.9333 H         1 UNK         0.3024 
    100 H100       24.4099   -2.7181   -1.6095 H         1 UNK         0.1171 
    101 H101       23.5197   -3.8385   -3.6598 H         1 UNK         0.0786 
    102 H102       24.6553   -4.8950   -2.8453 H         1 UNK         0.0786 
    103 H103       25.1465   -4.0268   -4.2972 H         1 UNK         0.0786 
    104 H104       26.9205   -3.7255   -2.6045 H         1 UNK         0.2977 
    105 H105       26.7344    0.1788   -5.1896 H         1 UNK         0.3127 
    106 H106       28.7429    2.2021   -5.3424 H         1 UNK         0.0770 
    107 H107       25.7723    2.4573   -4.6347 H         1 UNK         0.0814 
    108 H108       27.0169    3.6528   -4.3081 H         1 UNK         0.0814 
    109 H109       27.0738    2.0901   -3.5063 H         1 UNK         0.0814 
    110 H110       25.5702    1.8993   -7.0465 H         1 UNK         0.2983 
    111 H111       25.8365    4.2275   -8.6147 H         1 UNK         0.0947 
    112 H112       23.9194    3.2551   -9.9029 H         1 UNK         0.0806 
    113 H113       23.6650    3.1292   -8.1695 H         1 UNK         0.0806 
    114 H114       24.1549    1.7106   -9.0937 H         1 UNK         0.0806 
    115 H115       26.7988    0.8491   -9.3835 H         1 UNK         0.3000 
    116 H116       28.1931    1.8322  -11.8440 H         1 UNK         0.0850 
    117 H117       27.5332   -0.3241  -12.8937 H         1 UNK         0.0810 
    118 H118       26.1343    0.6685  -12.5114 H         1 UNK         0.0810 
    119 H119       26.5379   -0.7128  -11.4955 H         1 UNK         0.0810 
    120 H120       30.9587    0.4430   -9.9262 H         1 UNK         0.3040 
    121 H121       29.4959    2.9618  -10.1309 H         1 UNK         0.0766 
    122 H122       31.1393    3.8828  -11.8083 H         1 UNK         0.0812 
    123 H123       30.1363    2.6508  -12.5457 H         1 UNK         0.0812 
    124 H124       31.7849    2.2705  -12.0729 H         1 UNK         0.0812 
    125 H125       29.9600    2.8326   -7.9012 H         1 UNK         0.3205 
    126 H126       31.0451    2.8754   -5.9736 H         1 UNK         0.0754 
    127 H127       33.0718    4.2774   -5.7357 H         1 UNK         0.0769 
    128 H128       31.8982    5.0778   -6.7693 H         1 UNK         0.0769 
    129 H129       33.3115    4.2961   -7.4752 H         1 UNK         0.0769 
    130 H130       30.9528    0.5067   -6.7999 H         1 UNK         0.2981 
    131 H131       31.6794   -1.5393   -6.6849 H         1 UNK         0.0541 
    132 H132       34.2191   -2.1818   -9.4851 H         1 UNK         0.3459 
    133 H133       34.4279   -2.4789   -7.7801 H         1 UNK         0.3459 
    134 H134       34.4987   -0.6724   -5.8577 H         1 UNK         0.0612 
    135 H135       33.8825   -2.2975   -5.8700 H         1 UNK         0.0612 
    136 H136       34.2528   -3.1141   -3.7928 H         1 UNK         0.0624 
    137 H137       33.7711   -2.4477   -2.2606 H         1 UNK         0.0624 
@<TRIPOS>BOND
     1    1    2 1    
     2    1   72 1    
     3    1   73 1    
     4    1   74 1    
     5    2    3 2    
     6    2    4 am   BACKBONE|DICT|INTERRES
     7    4    5 1    
     8    4   75 1    
     9    5    6 1    
    10    5   35 1    
    11    5   76 1    
    12    6    7 1    
    13    6   77 1    
    14    6   78 1    
    15    7    8 1    
    16    8    9 1    
    17    8   79 1    
    18    8   80 1    
    19    9   10 ar   
    20    9   14 ar   
    21   10   11 ar   
    22   10   81 1    
    23   11   12 ar   
    24   11   71 1    
    25   12   13 ar   
    26   12   82 1    
    27   13   14 ar   
    28   13   15 1    
    29   14   83 1    
    30   15   16 1    
    31   15   84 1    
    32   15   85 1    
    33   16   17 1    
    34   17   18 1    
    35   17   86 1    
    36   17   87 1    
    37   18   19 1    
    38   18   37 1    
    39   18   88 1    
    40   19   20 am   BACKBONE|DICT|INTERRES
    41   19   89 1    
    42   20   21 2    
    43   20   22 1    
    44   22   23 1    
    45   22   24 1    
    46   22   90 1    
    47   23   91 1    
    48   23   92 1    
    49   23   93 1    
    50   24   25 am   BACKBONE|DICT|INTERRES
    51   24   94 1    
    52   25   26 2    
    53   25   27 1    
    54   27   28 1    
    55   27   29 1    
    56   27   95 1    
    57   28   96 1    
    58   28   97 1    
    59   28   98 1    
    60   29   30 am   BACKBONE|DICT|INTERRES
    61   29   99 1    
    62   30   31 2    
    63   30   32 1    
    64   32   33 1    
    65   32   34 1    
    66   32  100 1    
    67   33  101 1    
    68   33  102 1    
    69   33  103 1    
    70   34   35 am   BACKBONE|DICT|INTERRES
    71   34  104 1    
    72   35   36 2    
    73   37   38 2    
    74   37   39 am   BACKBONE|DICT|INTERRES
    75   39   40 1    
    76   39  105 1    
    77   40   41 1    
    78   40   42 1    
    79   40  106 1    
    80   41  107 1    
    81   41  108 1    
    82   41  109 1    
    83   42   43 2    
    84   42   44 am   BACKBONE|DICT|INTERRES
    85   44   45 1    
    86   44  110 1    
    87   45   46 1    
    88   45   47 1    
    89   45  111 1    
    90   46  112 1    
    91   46  113 1    
    92   46  114 1    
    93   47   48 2    
    94   47   49 am   BACKBONE|DICT|INTERRES
    95   49   50 1    
    96   49  115 1    
    97   50   51 1    
    98   50   52 1    
    99   50  116 1    
   100   51  117 1    
   101   51  118 1    
   102   51  119 1    
   103   52   53 2    
   104   52   54 am   BACKBONE|DICT|INTERRES
   105   54   55 1    
   106   54  120 1    
   107   55   56 1    
   108   55   57 1    
   109   55  121 1    
   110   56  122 1    
   111   56  123 1    
   112   56  124 1    
   113   57   58 2    
   114   57   59 am   BACKBONE|DICT|INTERRES
   115   59   60 1    
   116   59  125 1    
   117   60   61 1    
   118   60   62 1    
   119   60  126 1    
   120   61  127 1    
   121   61  128 1    
   122   61  129 1    
   123   62   63 2    
   124   62   64 am   BACKBONE|DICT|INTERRES
   125   64   65 1    
   126   64  130 1    
   127   65   66 1    
   128   65   69 1    
   129   65  131 1    
   130   66   67 am   BACKBONE|DICT|INTERRES
   131   66   68 2    
   132   67  132 1    
   133   67  133 1    
   134   69   70 1    
   135   69  134 1    
   136   69  135 1    
   137   70   71 1    
   138   71  136 1    
   139   71  137 1    
@<TRIPOS>SUBSTRUCTURE
     1 UNK         1 GROUP             0       ****    0 ROOT    
