@<TRIPOS>MOLECULE
3R137
137   139    1
SMALL
USER_CHARGES


@<TRIPOS>ATOM
      1 CA         28.9483    2.0105    1.3818 C.3       0 UNK        -0.2020 
      2 C          27.7723    1.3225    0.7043 C.2       0 UNK         0.4855 
      3 O          26.8387    1.9948    0.2648 O.2       0 UNK        -0.5197 
      4 N          27.8125   -0.0116    0.6080 N.am      1 UNK        -0.4892 
      5 CA         26.7504   -0.8359    0.0222 C.3       1 UNK         0.0835 
      6 C6         27.2532   -2.2623   -0.3085 C.3       12 UNK        -0.0855 
      7 S7         28.4503   -2.2120   -1.6770 S.3       12 UNK        -0.2931 
      8 C8         29.1177   -3.9036   -1.6615 C.3       12 UNK         0.0378 
      9 C9         29.9724   -4.1337   -2.8988 C.ar      12 UNK        -0.0802 
     10 C10        31.1755   -3.4367   -3.0497 C.ar      12 UNK        -0.0944 
     11 C11        31.9148   -3.5462   -4.2293 C.ar      12 UNK        -0.0787 
     12 C12        31.4741   -4.4005   -5.2418 C.ar      12 UNK        -0.0862 
     13 C13        30.2712   -5.1001   -5.1055 C.ar      12 UNK        -0.0733 
     14 C14        29.5294   -4.9756   -3.9256 C.ar      12 UNK        -0.0832 
     15 C15        29.7248   -5.8929   -6.2865 C.3       12 UNK         0.0240 
     16 S16        28.4201   -4.9861   -7.1988 S.3       12 UNK        -0.2522 
     17 C17        28.9690   -3.2470   -7.0628 C.3       12 UNK        -0.0967 
     18 CA         28.1214   -2.2167   -7.8484 C.3       5 UNK         0.0660 
     19 N          26.6813   -2.4350   -7.6922 N.am      5 UNK        -0.4015 
     20 C          25.7099   -1.7153   -8.2718 C.2       4 UNK         0.4946 
     21 O          25.9123   -0.7927   -9.0595 O.2       4 UNK        -0.5353 
     22 CA         24.2657   -2.0458   -7.8569 C.3       4 UNK         0.0277 
     23 CB         23.6711   -3.1175   -8.7839 C.3       4 UNK        -0.1981 
     24 N          24.1518   -2.4811   -6.4602 N.am      4 UNK        -0.4209 
     25 C          24.5015   -1.7372   -5.4023 C.2       3 UNK         0.4942 
     26 O          24.9342   -0.5826   -5.4796 O.2       3 UNK        -0.5208 
     27 CA         24.4278   -2.4263   -4.0388 C.3       3 UNK         0.0250 
     28 CB         25.6735   -3.3095   -3.8243 C.3       3 UNK        -0.1990 
     29 N          24.3415   -1.3925   -3.0119 N.am      3 UNK        -0.4232 
     30 C          23.9538   -1.5832   -1.7480 C.2       2 UNK         0.4993 
     31 O          23.6490   -2.6815   -1.2778 O.2       2 UNK        -0.5286 
     32 CA         23.8683   -0.3319   -0.8586 C.3       2 UNK         0.0209 
     33 CB         22.4236    0.1938   -0.8306 C.3       2 UNK        -0.1931 
     34 N          24.2917   -0.6192    0.5170 N.am      2 UNK        -0.4546 
     35 C          25.5281   -0.8815    0.9719 C.2       1 UNK         0.5154 
     36 O          25.7209   -1.1644    2.1557 O.2       1 UNK        -0.5181 
     37 C          28.5353   -0.7997   -7.4036 C.2       5 UNK         0.5014 
     38 O          29.2799   -0.1268   -8.1164 O.2       5 UNK        -0.5248 
     39 N          28.0365   -0.3802   -6.2310 N.am      6 UNK        -0.4434 
     40 CA         28.2974    0.9287   -5.6359 C.3       6 UNK         0.0363 
     41 CB         27.8977    0.9135   -4.1514 C.3       6 UNK        -0.1936 
     42 C          27.5771    2.0534   -6.3915 C.2       6 UNK         0.5081 
     43 O          28.1643    3.1174   -6.5824 O.2       6 UNK        -0.5248 
     44 N          26.3437    1.7871   -6.8476 N.am      7 UNK        -0.4718 
     45 CA         25.5562    2.6960   -7.6872 C.3       7 UNK         0.0273 
     46 CB         24.1293    2.1480   -7.8448 C.3       7 UNK        -0.1935 
     47 C          26.2030    2.9483   -9.0618 C.2       7 UNK         0.5018 
     48 O          26.2161    4.0892   -9.5246 O.2       7 UNK        -0.5186 
     49 N          26.7557    1.8894   -9.6702 N.am      8 UNK        -0.4240 
     50 CA         27.5195    1.9446  -10.9200 C.3       8 UNK         0.0235 
     51 CB         27.5776    0.5322  -11.5264 C.3       8 UNK        -0.2000 
     52 C          28.9463    2.5021  -10.7521 C.2       8 UNK         0.4941 
     53 O          29.5722    2.8333  -11.7598 O.2       8 UNK        -0.5273 
     54 N          29.4415    2.5647   -9.5058 N.am      9 UNK        -0.4262 
     55 CA         30.8125    2.8991   -9.0988 C.3       9 UNK         0.0264 
     56 CB         31.1483    4.3705   -9.4211 C.3       9 UNK        -0.1955 
     57 C          31.8474    1.9006   -9.6572 C.2       9 UNK         0.5031 
     58 O          32.9326    2.2991  -10.0858 O.2       9 UNK        -0.5390 
     59 N          31.4891    0.6096   -9.6374 N.am      10 UNK        -0.4204 
     60 CA         32.2808   -0.5007  -10.1738 C.3       10 UNK         0.0237 
     61 CB         31.3668   -1.7270  -10.3368 C.3       10 UNK        -0.1985 
     62 C          33.5129   -0.8579   -9.3229 C.2       10 UNK         0.4970 
     63 O          34.3996   -1.5529   -9.8205 O.2       10 UNK        -0.4914 
     64 N          33.5460   -0.3967   -8.0662 N.am      11 UNK        -0.4285 
     65 CA         34.6305   -0.6381   -7.1007 C.3       11 UNK         0.1007 
     66 C          35.9711    0.0821   -7.4307 C.2       11 UNK         0.5703 
     67 N          36.0017    1.0513   -8.3388 N.am      11 UNK        -0.7361 
     68 O          37.0032   -0.2495   -6.8523 O.2       11 UNK        -0.4986 
     69 C69        34.1906   -0.3301   -5.6432 C.3       12 UNK        -0.0947 
     70 S70        32.5956   -1.0890   -5.1940 S.3       12 UNK        -0.2240 
     71 C71        33.1291   -2.6634   -4.4566 C.3       12 UNK         0.0194 
     72 H72        28.6038    2.5838    2.2394 H         1 UNK         0.0906 
     73 H73        29.6934    1.2982    1.7298 H         1 UNK         0.0906 
     74 H74        29.4328    2.6942    0.6883 H         1 UNK         0.0906 
     75 H75        28.5954   -0.5189    0.9947 H         1 UNK         0.3140 
     76 H76        26.4782   -0.3582   -0.9177 H         1 UNK         0.1085 
     77 H77        26.4283   -2.9106   -0.6095 H         1 UNK         0.0836 
     78 H78        27.7108   -2.7297    0.5658 H         1 UNK         0.0836 
     79 H79        29.7163   -4.0550   -0.7626 H         1 UNK         0.0731 
     80 H80        28.2951   -4.6190   -1.6197 H         1 UNK         0.0731 
     81 H81        31.4989   -2.7544   -2.2752 H         1 UNK         0.1312 
     82 H82        32.0302   -4.4613   -6.1676 H         1 UNK         0.1406 
     83 H83        28.5815   -5.4886   -3.8342 H         1 UNK         0.1631 
     84 H84        29.3216   -6.8448   -5.9382 H         1 UNK         0.0717 
     85 H85        30.5294   -6.1399   -6.9809 H         1 UNK         0.0717 
     86 H86        28.9629   -2.9958   -5.9998 H         1 UNK         0.0934 
     87 H87        30.0109   -3.1868   -7.3826 H         1 UNK         0.0934 
     88 H88        28.3490   -2.3157   -8.9117 H         1 UNK         0.0739 
     89 H89        26.4176   -3.2002   -7.0897 H         1 UNK         0.3093 
     90 H90        23.6757   -1.1339   -7.9664 H         1 UNK         0.0818 
     91 H91        22.6199   -3.2986   -8.5591 H         1 UNK         0.0819 
     92 H92        23.7271   -2.8033   -9.8272 H         1 UNK         0.0819 
     93 H93        24.2019   -4.0668   -8.7009 H         1 UNK         0.0819 
     94 H94        23.8070   -3.4181   -6.3046 H         1 UNK         0.3041 
     95 H95        23.5249   -3.0393   -4.0011 H         1 UNK         0.0784 
     96 H96        25.7280   -4.1045   -4.5684 H         1 UNK         0.0793 
     97 H97        26.5935   -2.7303   -3.9012 H         1 UNK         0.0793 
     98 H98        25.6638   -3.7909   -2.8469 H         1 UNK         0.0793 
     99 H99        24.5343   -0.4617   -3.3633 H         1 UNK         0.3024 
    100 H100       24.4948    0.4620   -1.2701 H         1 UNK         0.1171 
    101 H101       22.0785    0.4445   -1.8349 H         1 UNK         0.0786 
    102 H102       22.3414    1.0985   -0.2277 H         1 UNK         0.0786 
    103 H103       21.7312   -0.5448   -0.4240 H         1 UNK         0.0786 
    104 H104       23.5369   -0.6936    1.1827 H         1 UNK         0.2977 
    105 H105       27.3852   -0.9742   -5.7388 H         1 UNK         0.3127 
    106 H106       29.3713    1.1205   -5.6962 H         1 UNK         0.0770 
    107 H107       26.8373    0.7002   -4.0158 H         1 UNK         0.0814 
    108 H108       28.4645    0.1647   -3.5982 H         1 UNK         0.0814 
    109 H109       28.0981    1.8786   -3.6842 H         1 UNK         0.0814 
    110 H110       25.9195    0.8976   -6.6054 H         1 UNK         0.2983 
    111 H111       25.4974    3.6558   -7.1691 H         1 UNK         0.0947 
    112 H112       23.5034    2.8486   -8.3989 H         1 UNK         0.0806 
    113 H113       23.6560    1.9842   -6.8764 H         1 UNK         0.0806 
    114 H114       24.1175    1.2032   -8.3879 H         1 UNK         0.0806 
    115 H115       26.6225    0.9669   -9.2608 H         1 UNK         0.3000 
    116 H116       26.9929    2.5979  -11.6190 H         1 UNK         0.0850 
    117 H117       28.1105    0.5334  -12.4783 H         1 UNK         0.0810 
    118 H118       26.5778    0.1402  -11.7149 H         1 UNK         0.0810 
    119 H119       28.0908   -0.1672  -10.8646 H         1 UNK         0.0810 
    120 H120       28.8381    2.2509   -8.7567 H         1 UNK         0.3040 
    121 H121       30.8387    2.7866   -8.0138 H         1 UNK         0.0766 
    122 H122       30.4033    5.0467   -9.0018 H         1 UNK         0.0812 
    123 H123       31.1991    4.5501  -10.4953 H         1 UNK         0.0812 
    124 H124       32.1144    4.6510   -9.0000 H         1 UNK         0.0812 
    125 H125       30.6003    0.3648   -9.1976 H         1 UNK         0.3205 
    126 H126       32.6424   -0.2094  -11.1622 H         1 UNK         0.0754 
    127 H127       31.9041   -2.5577  -10.7963 H         1 UNK         0.0769 
    128 H128       30.5108   -1.5031  -10.9740 H         1 UNK         0.0769 
    129 H129       30.9882   -2.0755   -9.3758 H         1 UNK         0.0769 
    130 H130       32.7679    0.1501   -7.7312 H         1 UNK         0.2981 
    131 H131       34.8524   -1.7060   -7.1471 H         1 UNK         0.0541 
    132 H132       35.1603    1.3288   -8.8213 H         1 UNK         0.3459 
    133 H133       36.8763    1.5072   -8.5451 H         1 UNK         0.3459 
    134 H134       34.0886    0.7474   -5.5015 H         1 UNK         0.0612 
    135 H135       34.9513   -0.6586   -4.9324 H         1 UNK         0.0612 
    136 H136       33.6487   -2.4733   -3.5162 H         1 UNK         0.0624 
    137 H137       33.8403   -3.1592   -5.1192 H         1 UNK         0.0624 
@<TRIPOS>BOND
     1    1    2 1    
     2    1   72 1    
     3    1   73 1    
     4    1   74 1    
     5    2    3 2    
     6    2    4 am   BACKBONE|DICT|INTERRES
     7    4    5 1    
     8    4   75 1    
     9    5    6 1    
    10    5   35 1    
    11    5   76 1    
    12    6    7 1    
    13    6   77 1    
    14    6   78 1    
    15    7    8 1    
    16    8    9 1    
    17    8   79 1    
    18    8   80 1    
    19    9   10 ar   
    20    9   14 ar   
    21   10   11 ar   
    22   10   81 1    
    23   11   12 ar   
    24   11   71 1    
    25   12   13 ar   
    26   12   82 1    
    27   13   14 ar   
    28   13   15 1    
    29   14   83 1    
    30   15   16 1    
    31   15   84 1    
    32   15   85 1    
    33   16   17 1    
    34   17   18 1    
    35   17   86 1    
    36   17   87 1    
    37   18   19 1    
    38   18   37 1    
    39   18   88 1    
    40   19   20 am   BACKBONE|DICT|INTERRES
    41   19   89 1    
    42   20   21 2    
    43   20   22 1    
    44   22   23 1    
    45   22   24 1    
    46   22   90 1    
    47   23   91 1    
    48   23   92 1    
    49   23   93 1    
    50   24   25 am   BACKBONE|DICT|INTERRES
    51   24   94 1    
    52   25   26 2    
    53   25   27 1    
    54   27   28 1    
    55   27   29 1    
    56   27   95 1    
    57   28   96 1    
    58   28   97 1    
    59   28   98 1    
    60   29   30 am   BACKBONE|DICT|INTERRES
    61   29   99 1    
    62   30   31 2    
    63   30   32 1    
    64   32   33 1    
    65   32   34 1    
    66   32  100 1    
    67   33  101 1    
    68   33  102 1    
    69   33  103 1    
    70   34   35 am   BACKBONE|DICT|INTERRES
    71   34  104 1    
    72   35   36 2    
    73   37   38 2    
    74   37   39 am   BACKBONE|DICT|INTERRES
    75   39   40 1    
    76   39  105 1    
    77   40   41 1    
    78   40   42 1    
    79   40  106 1    
    80   41  107 1    
    81   41  108 1    
    82   41  109 1    
    83   42   43 2    
    84   42   44 am   BACKBONE|DICT|INTERRES
    85   44   45 1    
    86   44  110 1    
    87   45   46 1    
    88   45   47 1    
    89   45  111 1    
    90   46  112 1    
    91   46  113 1    
    92   46  114 1    
    93   47   48 2    
    94   47   49 am   BACKBONE|DICT|INTERRES
    95   49   50 1    
    96   49  115 1    
    97   50   51 1    
    98   50   52 1    
    99   50  116 1    
   100   51  117 1    
   101   51  118 1    
   102   51  119 1    
   103   52   53 2    
   104   52   54 am   BACKBONE|DICT|INTERRES
   105   54   55 1    
   106   54  120 1    
   107   55   56 1    
   108   55   57 1    
   109   55  121 1    
   110   56  122 1    
   111   56  123 1    
   112   56  124 1    
   113   57   58 2    
   114   57   59 am   BACKBONE|DICT|INTERRES
   115   59   60 1    
   116   59  125 1    
   117   60   61 1    
   118   60   62 1    
   119   60  126 1    
   120   61  127 1    
   121   61  128 1    
   122   61  129 1    
   123   62   63 2    
   124   62   64 am   BACKBONE|DICT|INTERRES
   125   64   65 1    
   126   64  130 1    
   127   65   66 1    
   128   65   69 1    
   129   65  131 1    
   130   66   67 am   BACKBONE|DICT|INTERRES
   131   66   68 2    
   132   67  132 1    
   133   67  133 1    
   134   69   70 1    
   135   69  134 1    
   136   69  135 1    
   137   70   71 1    
   138   71  136 1    
   139   71  137 1    
@<TRIPOS>SUBSTRUCTURE
     1 UNK         1 GROUP             0       ****    0 ROOT    
