@<TRIPOS>MOLECULE
3R137
137   139    1
SMALL
USER_CHARGES


@<TRIPOS>ATOM
      1 CA         28.4329    4.5265   -1.8259 C.3       0 UNK        -0.2020 
      2 C          28.0599    3.3188   -2.6712 C.2       0 UNK         0.4855 
      3 O          27.9317    3.4387   -3.8899 O.2       0 UNK        -0.5197 
      4 N          27.9159    2.1447   -2.0443 N.am      1 UNK        -0.4892 
      5 CA         27.4602    0.9151   -2.7023 C.3       1 UNK         0.0835 
      6 C6         27.9473   -0.3470   -1.9458 C.3       12 UNK        -0.0855 
      7 S7         27.9516   -1.8221   -3.0156 S.3       12 UNK        -0.2931 
      8 C8         29.7019   -1.8883   -3.5301 C.3       12 UNK         0.0378 
      9 C9         29.9117   -2.6858   -4.8143 C.ar      12 UNK        -0.0802 
     10 C10        30.7280   -2.1706   -5.8269 C.ar      12 UNK        -0.0944 
     11 C11        30.9190   -2.8740   -7.0185 C.ar      12 UNK        -0.0787 
     12 C12        30.2800   -4.1033   -7.2014 C.ar      12 UNK        -0.0862 
     13 C13        29.4581   -4.6301   -6.2011 C.ar      12 UNK        -0.0733 
     14 C14        29.2956   -3.9284   -5.0029 C.ar      12 UNK        -0.0832 
     15 C15        28.7360   -5.9505   -6.4228 C.3       12 UNK         0.0240 
     16 S16        27.2999   -5.7559   -7.5263 S.3       12 UNK        -0.2522 
     17 C17        26.1280   -4.8473   -6.4608 C.3       12 UNK        -0.0967 
     18 CA         24.9447   -4.2404   -7.2701 C.3       5 UNK         0.0660 
     19 N          23.7273   -4.1141   -6.4759 N.am      5 UNK        -0.4015 
     20 C          22.9244   -5.1002   -6.0703 C.2       4 UNK         0.4946 
     21 O          23.1305   -6.2917   -6.3104 O.2       4 UNK        -0.5353 
     22 CA         21.6976   -4.6760   -5.2349 C.3       4 UNK         0.0277 
     23 CB         20.7517   -5.8537   -4.9313 C.3       4 UNK        -0.1981 
     24 N          22.0905   -4.0444   -3.9702 N.am      4 UNK        -0.4209 
     25 C          22.5640   -2.7980   -3.8438 C.2       3 UNK         0.4942 
     26 O          22.6843   -2.0173   -4.7926 O.2       3 UNK        -0.5208 
     27 CA         22.9960   -2.3669   -2.4361 C.3       3 UNK         0.0250 
     28 CB         24.2013   -3.1898   -1.9409 C.3       3 UNK        -0.1990 
     29 N          23.3645   -0.9554   -2.4683 N.am      3 UNK        -0.4232 
     30 C          23.2255   -0.0742   -1.4750 C.2       2 UNK         0.4993 
     31 O          22.7578   -0.3552   -0.3695 O.2       2 UNK        -0.5286 
     32 CA         23.7427    1.3493   -1.7611 C.3       2 UNK         0.0209 
     33 CB         23.2918    2.3699   -0.6990 C.3       2 UNK        -0.1931 
     34 N          25.2057    1.3601   -1.8369 N.am      2 UNK        -0.4546 
     35 C          25.9277    0.9305   -2.8828 C.2       1 UNK         0.5154 
     36 O          25.4255    0.5771   -3.9501 O.2       1 UNK        -0.5181 
     37 C          25.2518   -2.8565   -7.8801 C.2       5 UNK         0.5014 
     38 O          24.3814   -1.9801   -7.8856 O.2       5 UNK        -0.5248 
     39 N          26.4753   -2.6797   -8.3902 N.am      6 UNK        -0.4434 
     40 CA         27.0078   -1.3954   -8.8489 C.3       6 UNK         0.0363 
     41 CB         28.2384   -1.6611   -9.7312 C.3       6 UNK        -0.1936 
     42 C          27.3727   -0.4795   -7.6649 C.2       6 UNK         0.5081 
     43 O          27.5030   -0.9492   -6.5342 O.2       6 UNK        -0.5248 
     44 N          27.5516    0.8157   -7.9528 N.am      7 UNK        -0.4718 
     45 CA         28.0299    1.8096   -6.9883 C.3       7 UNK         0.0273 
     46 CB         27.8200    3.2161   -7.5721 C.3       7 UNK        -0.1935 
     47 C          29.5136    1.5935   -6.6461 C.2       7 UNK         0.5018 
     48 O          30.2708    1.1006   -7.4869 O.2       7 UNK        -0.5186 
     49 N          29.9216    2.0308   -5.4459 N.am      8 UNK        -0.4240 
     50 CA         31.2934    1.9063   -4.9318 C.3       8 UNK         0.0235 
     51 CB         31.3761    2.4523   -3.4992 C.3       8 UNK        -0.2000 
     52 C          32.3577    2.5657   -5.8230 C.2       8 UNK         0.4941 
     53 O          33.4670    2.0435   -5.9224 O.2       8 UNK        -0.5273 
     54 N          31.9843    3.6533   -6.5111 N.am      9 UNK        -0.4262 
     55 CA         32.8114    4.3646   -7.4893 C.3       9 UNK         0.0264 
     56 CB         32.0448    5.6015   -7.9855 C.3       9 UNK        -0.1955 
     57 C          33.2765    3.5075   -8.6843 C.2       9 UNK         0.5031 
     58 O          34.2867    3.8522   -9.2992 O.2       9 UNK        -0.5390 
     59 N          32.5590    2.4162   -8.9933 N.am      10 UNK        -0.4204 
     60 CA         32.9239    1.4743  -10.0529 C.3       10 UNK         0.0237 
     61 CB         31.6523    0.7851  -10.5787 C.3       10 UNK        -0.1985 
     62 C          33.9723    0.4330   -9.6145 C.2       10 UNK         0.4970 
     63 O          34.5486   -0.2120  -10.4917 O.2       10 UNK        -0.4914 
     64 N          34.1963    0.2694   -8.3018 N.am      11 UNK        -0.4285 
     65 CA         35.1098   -0.7333   -7.7238 C.3       11 UNK         0.1007 
     66 C          36.2194   -0.1190   -6.8276 C.2       11 UNK         0.5703 
     67 N          36.0468    1.0634   -6.2521 N.am      11 UNK        -0.7361 
     68 O          37.2777   -0.7232   -6.6687 O.2       11 UNK        -0.4986 
     69 C69        34.3315   -1.8470   -6.9711 C.3       12 UNK        -0.0947 
     70 S70        33.4646   -2.9691   -8.1186 S.3       12 UNK        -0.2240 
     71 C71        31.7797   -2.2877   -8.1264 C.3       12 UNK         0.0194 
     72 H72        28.5871    4.2619   -0.7801 H         1 UNK         0.0906 
     73 H73        29.3511    4.9784   -2.1999 H         1 UNK         0.0906 
     74 H74        27.6418    5.2743   -1.8744 H         1 UNK         0.0906 
     75 H75        28.0641    2.0921   -1.0459 H         1 UNK         0.3140 
     76 H76        27.8962    0.8864   -3.7036 H         1 UNK         0.1085 
     77 H77        28.9601   -0.1955   -1.5684 H         1 UNK         0.0836 
     78 H78        27.3334   -0.5484   -1.0655 H         1 UNK         0.0836 
     79 H79        30.0628   -0.8676   -3.6662 H         1 UNK         0.0731 
     80 H80        30.2977   -2.3289   -2.7298 H         1 UNK         0.0731 
     81 H81        31.2065   -1.2117   -5.7002 H         1 UNK         0.1312 
     82 H82        30.4105   -4.6438   -8.1291 H         1 UNK         0.1406 
     83 H83        28.6626   -4.3342   -4.2257 H         1 UNK         0.1631 
     84 H84        28.4111   -6.3835   -5.4754 H         1 UNK         0.0717 
     85 H85        29.4266   -6.6694   -6.8662 H         1 UNK         0.0717 
     86 H86        25.7623   -5.5639   -5.7239 H         1 UNK         0.0934 
     87 H87        26.6435   -4.0754   -5.8859 H         1 UNK         0.0934 
     88 H88        24.7045   -4.9005   -8.1064 H         1 UNK         0.0739 
     89 H89        23.4740   -3.1546   -6.2469 H         1 UNK         0.3093 
     90 H90        21.1388   -3.9497   -5.8296 H         1 UNK         0.0818 
     91 H91        19.8612   -5.5206   -4.3981 H         1 UNK         0.0819 
     92 H92        20.4150   -6.3312   -5.8525 H         1 UNK         0.0819 
     93 H93        21.2389   -6.6197   -4.3266 H         1 UNK         0.0819 
     94 H94        22.0485   -4.6303   -3.1484 H         1 UNK         0.3041 
     95 H95        22.1472   -2.5105   -1.7639 H         1 UNK         0.0784 
     96 H96        23.9576   -4.2495   -1.8598 H         1 UNK         0.0793 
     97 H97        25.0525   -3.0996   -2.6176 H         1 UNK         0.0793 
     98 H98        24.5270   -2.8604   -0.9540 H         1 UNK         0.0793 
     99 H99        23.7542   -0.6394   -3.3524 H         1 UNK         0.3024 
    100 H100       23.3309    1.6640   -2.7232 H         1 UNK         0.1171 
    101 H101       23.6191    3.3780   -0.9544 H         1 UNK         0.0786 
    102 H102       23.6857    2.1298    0.2894 H         1 UNK         0.0786 
    103 H103       22.2041    2.3943   -0.6196 H         1 UNK         0.0786 
    104 H104       25.6949    1.6336   -0.9977 H         1 UNK         0.2977 
    105 H105       27.1396   -3.4361   -8.2915 H         1 UNK         0.3127 
    106 H106       26.2462   -0.8935   -9.4497 H         1 UNK         0.0770 
    107 H107       29.0131   -2.1882   -9.1769 H         1 UNK         0.0814 
    108 H108       28.6749   -0.7310  -10.0970 H         1 UNK         0.0814 
    109 H109       27.9806   -2.2630  -10.6027 H         1 UNK         0.0814 
    110 H110       27.4657    1.1204   -8.9112 H         1 UNK         0.2983 
    111 H111       27.4393    1.7127   -6.0740 H         1 UNK         0.0947 
    112 H112       28.1168    3.9840   -6.8562 H         1 UNK         0.0806 
    113 H113       26.7717    3.3929   -7.8137 H         1 UNK         0.0806 
    114 H114       28.4060    3.3700   -8.4794 H         1 UNK         0.0806 
    115 H115       29.2427    2.4965   -4.8469 H         1 UNK         0.3000 
    116 H116       31.5326    0.8438   -4.8947 H         1 UNK         0.0850 
    117 H117       32.3926    2.3749   -3.1103 H         1 UNK         0.0810 
    118 H118       30.7337    1.8886   -2.8232 H         1 UNK         0.0810 
    119 H119       31.0885    3.5029   -3.4499 H         1 UNK         0.0810 
    120 H120       31.0473    4.0016   -6.3709 H         1 UNK         0.3040 
    121 H121       33.7101    4.7032   -6.9695 H         1 UNK         0.0766 
    122 H122       32.6437    6.1734   -8.6960 H         1 UNK         0.0812 
    123 H123       31.7958    6.2724   -7.1631 H         1 UNK         0.0812 
    124 H124       31.1173    5.3262   -8.4893 H         1 UNK         0.0812 
    125 H125       31.7493    2.1711   -8.4304 H         1 UNK         0.3205 
    126 H126       33.3595    2.0331  -10.8842 H         1 UNK         0.0754 
    127 H127       31.8864    0.1027  -11.3970 H         1 UNK         0.0769 
    128 H128       30.9369    1.5134  -10.9606 H         1 UNK         0.0769 
    129 H129       31.1527    0.2033   -9.8052 H         1 UNK         0.0769 
    130 H130       33.7301    0.8747   -7.6374 H         1 UNK         0.2981 
    131 H131       35.6634   -1.2185   -8.5298 H         1 UNK         0.0541 
    132 H132       36.7904    1.4431   -5.6892 H         1 UNK         0.3459 
    133 H133       35.1398    1.5244   -6.2606 H         1 UNK         0.3459 
    134 H134       33.6281   -1.4176   -6.2560 H         1 UNK         0.0612 
    135 H135       35.0127   -2.4695   -6.3878 H         1 UNK         0.0612 
    136 H136       31.3304   -2.5036   -9.0960 H         1 UNK         0.0624 
    137 H137       31.8153   -1.2016   -8.0429 H         1 UNK         0.0624 
@<TRIPOS>BOND
     1    1    2 1    
     2    1   72 1    
     3    1   73 1    
     4    1   74 1    
     5    2    3 2    
     6    2    4 am   BACKBONE|DICT|INTERRES
     7    4    5 1    
     8    4   75 1    
     9    5    6 1    
    10    5   35 1    
    11    5   76 1    
    12    6    7 1    
    13    6   77 1    
    14    6   78 1    
    15    7    8 1    
    16    8    9 1    
    17    8   79 1    
    18    8   80 1    
    19    9   10 ar   
    20    9   14 ar   
    21   10   11 ar   
    22   10   81 1    
    23   11   12 ar   
    24   11   71 1    
    25   12   13 ar   
    26   12   82 1    
    27   13   14 ar   
    28   13   15 1    
    29   14   83 1    
    30   15   16 1    
    31   15   84 1    
    32   15   85 1    
    33   16   17 1    
    34   17   18 1    
    35   17   86 1    
    36   17   87 1    
    37   18   19 1    
    38   18   37 1    
    39   18   88 1    
    40   19   20 am   BACKBONE|DICT|INTERRES
    41   19   89 1    
    42   20   21 2    
    43   20   22 1    
    44   22   23 1    
    45   22   24 1    
    46   22   90 1    
    47   23   91 1    
    48   23   92 1    
    49   23   93 1    
    50   24   25 am   BACKBONE|DICT|INTERRES
    51   24   94 1    
    52   25   26 2    
    53   25   27 1    
    54   27   28 1    
    55   27   29 1    
    56   27   95 1    
    57   28   96 1    
    58   28   97 1    
    59   28   98 1    
    60   29   30 am   BACKBONE|DICT|INTERRES
    61   29   99 1    
    62   30   31 2    
    63   30   32 1    
    64   32   33 1    
    65   32   34 1    
    66   32  100 1    
    67   33  101 1    
    68   33  102 1    
    69   33  103 1    
    70   34   35 am   BACKBONE|DICT|INTERRES
    71   34  104 1    
    72   35   36 2    
    73   37   38 2    
    74   37   39 am   BACKBONE|DICT|INTERRES
    75   39   40 1    
    76   39  105 1    
    77   40   41 1    
    78   40   42 1    
    79   40  106 1    
    80   41  107 1    
    81   41  108 1    
    82   41  109 1    
    83   42   43 2    
    84   42   44 am   BACKBONE|DICT|INTERRES
    85   44   45 1    
    86   44  110 1    
    87   45   46 1    
    88   45   47 1    
    89   45  111 1    
    90   46  112 1    
    91   46  113 1    
    92   46  114 1    
    93   47   48 2    
    94   47   49 am   BACKBONE|DICT|INTERRES
    95   49   50 1    
    96   49  115 1    
    97   50   51 1    
    98   50   52 1    
    99   50  116 1    
   100   51  117 1    
   101   51  118 1    
   102   51  119 1    
   103   52   53 2    
   104   52   54 am   BACKBONE|DICT|INTERRES
   105   54   55 1    
   106   54  120 1    
   107   55   56 1    
   108   55   57 1    
   109   55  121 1    
   110   56  122 1    
   111   56  123 1    
   112   56  124 1    
   113   57   58 2    
   114   57   59 am   BACKBONE|DICT|INTERRES
   115   59   60 1    
   116   59  125 1    
   117   60   61 1    
   118   60   62 1    
   119   60  126 1    
   120   61  127 1    
   121   61  128 1    
   122   61  129 1    
   123   62   63 2    
   124   62   64 am   BACKBONE|DICT|INTERRES
   125   64   65 1    
   126   64  130 1    
   127   65   66 1    
   128   65   69 1    
   129   65  131 1    
   130   66   67 am   BACKBONE|DICT|INTERRES
   131   66   68 2    
   132   67  132 1    
   133   67  133 1    
   134   69   70 1    
   135   69  134 1    
   136   69  135 1    
   137   70   71 1    
   138   71  136 1    
   139   71  137 1    
@<TRIPOS>SUBSTRUCTURE
     1 UNK         1 GROUP             0       ****    0 ROOT    
