@<TRIPOS>MOLECULE
3R137
137   139    1
SMALL
USER_CHARGES


@<TRIPOS>ATOM
      1 CA         31.0326   -4.2262   -6.9242 C.3       0 UNK        -0.2020 
      2 C          30.0037   -5.1662   -6.3114 C.2       0 UNK         0.4855 
      3 O          29.8542   -6.2976   -6.7743 O.2       0 UNK        -0.5197 
      4 N          29.3014   -4.7072   -5.2698 N.am      1 UNK        -0.4892 
      5 CA         28.2017   -5.4169   -4.6074 C.3       1 UNK         0.0835 
      6 C6         28.1335   -5.0698   -3.0947 C.3       12 UNK        -0.0855 
      7 S7         28.0723   -3.2782   -2.7462 S.3       12 UNK        -0.2931 
      8 C8         29.6820   -3.0311   -1.9339 C.3       12 UNK         0.0378 
      9 C9         29.9870   -1.5493   -1.8121 C.ar      12 UNK        -0.0802 
     10 C10        30.7838   -0.9179   -2.7699 C.ar      12 UNK        -0.0944 
     11 C11        31.0138    0.4628   -2.7167 C.ar      12 UNK        -0.0787 
     12 C12        30.4530    1.1989   -1.6673 C.ar      12 UNK        -0.0862 
     13 C13        29.6374    0.5799   -0.7127 C.ar      12 UNK        -0.0733 
     14 C14        29.4276   -0.7995   -0.7759 C.ar      12 UNK        -0.0832 
     15 C15        28.9004    1.4104    0.3284 C.3       12 UNK         0.0240 
     16 S16        27.1385    1.6131   -0.1168 S.3       12 UNK        -0.2522 
     17 C17        27.2704    2.3822   -1.7663 C.3       12 UNK        -0.0967 
     18 CA         27.1484    1.3241   -2.9074 C.3       5 UNK         0.0660 
     19 N          25.7718    0.8704   -3.1235 N.am      5 UNK        -0.4015 
     20 C          24.7639    1.5797   -3.6454 C.2       4 UNK         0.4946 
     21 O          24.8840    2.7276   -4.0811 O.2       4 UNK        -0.5353 
     22 CA         23.3921    0.8778   -3.6922 C.3       4 UNK         0.0277 
     23 CB         22.2344    1.8811   -3.8533 C.3       4 UNK        -0.1981 
     24 N          23.3078   -0.1122   -4.7678 N.am      4 UNK        -0.4209 
     25 C          23.9374   -1.2940   -4.7955 C.2       3 UNK         0.4942 
     26 O          24.6715   -1.6982   -3.8899 O.2       3 UNK        -0.5208 
     27 CA         23.7018   -2.1424   -6.0576 C.3       3 UNK         0.0250 
     28 CB         24.3350   -1.4830   -7.2929 C.3       3 UNK        -0.1990 
     29 N          24.2548   -3.4889   -5.9264 N.am      3 UNK        -0.4232 
     30 C          23.6563   -4.5251   -5.3334 C.2       2 UNK         0.4993 
     31 O          22.5389   -4.4653   -4.8176 O.2       2 UNK        -0.5286 
     32 CA         24.4082   -5.8708   -5.3431 C.3       2 UNK         0.0209 
     33 CB         24.3327   -6.5319   -6.7341 C.3       2 UNK        -0.1931 
     34 N          25.7952   -5.8345   -4.8481 N.am      2 UNK        -0.4546 
     35 C          26.8611   -5.1871   -5.3458 C.2       1 UNK         0.5154 
     36 O          26.8131   -4.4535   -6.3380 O.2       1 UNK        -0.5181 
     37 C          27.8070    1.7414   -4.2382 C.2       5 UNK         0.5014 
     38 O          27.9915    0.8862   -5.1051 O.2       5 UNK        -0.5248 
     39 N          28.1298    3.0354   -4.3953 N.am      6 UNK        -0.4434 
     40 CA         28.8039    3.6208   -5.5601 C.3       6 UNK         0.0363 
     41 CB         29.0363    5.1188   -5.3096 C.3       6 UNK        -0.1936 
     42 C          28.0792    3.4036   -6.9006 C.2       6 UNK         0.5081 
     43 O          28.7302    3.4448   -7.9445 O.2       6 UNK        -0.5248 
     44 N          26.7704    3.1119   -6.8544 N.am      7 UNK        -0.4718 
     45 CA         25.9599    2.6708   -7.9932 C.3       7 UNK         0.0273 
     46 CB         24.4980    2.5311   -7.5405 C.3       7 UNK        -0.1935 
     47 C          26.4505    1.3625   -8.6490 C.2       7 UNK         0.5018 
     48 O          26.1141    1.1208   -9.8085 O.2       7 UNK        -0.5186 
     49 N          27.2459    0.5563   -7.9257 N.am      8 UNK        -0.4240 
     50 CA         27.9205   -0.6327   -8.4539 C.3       8 UNK         0.0235 
     51 CB         28.4570   -1.4786   -7.2874 C.3       8 UNK        -0.2000 
     52 C          29.0608   -0.2998   -9.4343 C.2       8 UNK         0.4941 
     53 O          29.4222   -1.1635  -10.2348 O.2       8 UNK        -0.5273 
     54 N          29.6125    0.9232   -9.3536 N.am      9 UNK        -0.4262 
     55 CA         30.6683    1.5296  -10.1795 C.3       9 UNK         0.0264 
     56 CB         30.2117    1.6773  -11.6434 C.3       9 UNK        -0.1955 
     57 C          32.0475    0.8495  -10.0989 C.2       9 UNK         0.5031 
     58 O          33.0488    1.5400   -9.9023 O.2       9 UNK        -0.5390 
     59 N          32.0846   -0.4814  -10.2376 N.am      10 UNK        -0.4204 
     60 CA         33.2865   -1.3231  -10.2497 C.3       10 UNK         0.0237 
     61 CB         32.8817   -2.7679  -10.5839 C.3       10 UNK        -0.1985 
     62 C          34.1088   -1.2814   -8.9490 C.2       10 UNK         0.4970 
     63 O          35.3040   -1.5763   -8.9860 O.2       10 UNK        -0.4914 
     64 N          33.4661   -0.9081   -7.8364 N.am      11 UNK        -0.4285 
     65 CA         34.1058   -0.6510   -6.5409 C.3       11 UNK         0.1007 
     66 C          34.9361    0.6665   -6.4702 C.2       11 UNK         0.5703 
     67 N          34.8630    1.5608   -7.4511 N.am      11 UNK        -0.7361 
     68 O          35.6731    0.8725   -5.5090 O.2       11 UNK        -0.4986 
     69 C69        33.0806   -0.7738   -5.3856 C.3       12 UNK        -0.0947 
     70 S70        31.7376    0.4679   -5.4558 S.3       12 UNK        -0.2240 
     71 C71        31.8335    1.1965   -3.7816 C.3       12 UNK         0.0194 
     72 H72        31.0127   -3.2414   -6.4588 H         1 UNK         0.0906 
     73 H73        32.0354   -4.6371   -6.8101 H         1 UNK         0.0906 
     74 H74        30.8341   -4.1003   -7.9880 H         1 UNK         0.0906 
     75 H75        29.4247   -3.7539   -4.9597 H         1 UNK         0.3140 
     76 H76        28.3967   -6.4895   -4.6804 H         1 UNK         0.1085 
     77 H77        27.2776   -5.5432   -2.6114 H         1 UNK         0.0836 
     78 H78        29.0039   -5.4995   -2.5964 H         1 UNK         0.0836 
     79 H79        29.6701   -3.4969   -0.9473 H         1 UNK         0.0731 
     80 H80        30.4656   -3.5308   -2.5060 H         1 UNK         0.0731 
     81 H81        31.1947   -1.5092   -3.5731 H         1 UNK         0.1312 
     82 H82        30.6110    2.2678   -1.6220 H         1 UNK         0.1406 
     83 H83        28.7792   -1.2789   -0.0546 H         1 UNK         0.1631 
     84 H84        29.3622    2.3927    0.4403 H         1 UNK         0.0717 
     85 H85        28.9699    0.9249    1.3029 H         1 UNK         0.0717 
     86 H86        26.4992    3.1491   -1.8567 H         1 UNK         0.0934 
     87 H87        28.2211    2.9153   -1.7970 H         1 UNK         0.0934 
     88 H88        27.6939    0.4290   -2.6108 H         1 UNK         0.0739 
     89 H89        25.5953   -0.1101   -2.9304 H         1 UNK         0.3093 
     90 H90        23.2533    0.3634   -2.7386 H         1 UNK         0.0818 
     91 H91        21.2659    1.3841   -3.7942 H         1 UNK         0.0819 
     92 H92        22.2589    2.6336   -3.0639 H         1 UNK         0.0819 
     93 H93        22.2841    2.4091   -4.8066 H         1 UNK         0.0819 
     94 H94        22.7325    0.1423   -5.5574 H         1 UNK         0.3041 
     95 H95        22.6243   -2.2203   -6.2181 H         1 UNK         0.0784 
     96 H96        23.8905   -0.5107   -7.5042 H         1 UNK         0.0793 
     97 H97        25.4036   -1.3340   -7.1508 H         1 UNK         0.0793 
     98 H98        24.2000   -2.0954   -8.1848 H         1 UNK         0.0793 
     99 H99        25.2092   -3.6353   -6.2510 H         1 UNK         0.3024 
    100 H100       23.8692   -6.5203   -4.6507 H         1 UNK         0.1171 
    101 H101       23.2973   -6.6276   -7.0641 H         1 UNK         0.0786 
    102 H102       24.7611   -7.5341   -6.7200 H         1 UNK         0.0786 
    103 H103       24.8611   -5.9531   -7.4924 H         1 UNK         0.0786 
    104 H104       25.9446   -6.3839   -4.0130 H         1 UNK         0.2977 
    105 H105       27.8837    3.6787   -3.6577 H         1 UNK         0.3127 
    106 H106       29.7770    3.1326   -5.6461 H         1 UNK         0.0770 
    107 H107       28.0961    5.6568   -5.1816 H         1 UNK         0.0814 
    108 H108       29.5622    5.5774   -6.1483 H         1 UNK         0.0814 
    109 H109       29.6449    5.2845   -4.4205 H         1 UNK         0.0814 
    110 H110       26.3209    3.0917   -5.9467 H         1 UNK         0.2983 
    111 H111       26.0129    3.4503   -8.7561 H         1 UNK         0.0947 
    112 H112       23.8573    2.2247   -8.3686 H         1 UNK         0.0806 
    113 H113       24.1073    3.4754   -7.1607 H         1 UNK         0.0806 
    114 H114       24.3939    1.7867   -6.7517 H         1 UNK         0.0806 
    115 H115       27.4623    0.8060   -6.9626 H         1 UNK         0.3000 
    116 H116       27.1828   -1.2272   -8.9970 H         1 UNK         0.0850 
    117 H117       28.8551   -2.4254   -7.6519 H         1 UNK         0.0810 
    118 H118       29.2566   -0.9673   -6.7498 H         1 UNK         0.0810 
    119 H119       27.6754   -1.7176   -6.5661 H         1 UNK         0.0810 
    120 H120       29.2291    1.5562   -8.6588 H         1 UNK         0.3040 
    121 H121       30.7993    2.5366   -9.7795 H         1 UNK         0.0766 
    122 H122       29.2854    2.2480  -11.7115 H         1 UNK         0.0812 
    123 H123       30.0447    0.7111  -12.1203 H         1 UNK         0.0812 
    124 H124       30.9618    2.2051  -12.2340 H         1 UNK         0.0812 
    125 H125       31.1856   -0.9472  -10.3652 H         1 UNK         0.3205 
    126 H126       33.9332   -0.9544  -11.0484 H         1 UNK         0.0754 
    127 H127       33.7545   -3.4212  -10.6248 H         1 UNK         0.0769 
    128 H128       32.3889   -2.8270  -11.5546 H         1 UNK         0.0769 
    129 H129       32.2007   -3.1777   -9.8375 H         1 UNK         0.0769 
    130 H130       32.4903   -0.6616   -7.9003 H         1 UNK         0.2981 
    131 H131       34.8334   -1.4507   -6.3893 H         1 UNK         0.0541 
    132 H132       35.4127    2.4023   -7.3877 H         1 UNK         0.3459 
    133 H133       34.2536    1.4183   -8.2487 H         1 UNK         0.3459 
    134 H134       33.5926   -0.7187   -4.4236 H         1 UNK         0.0612 
    135 H135       32.6255   -1.7640   -5.4126 H         1 UNK         0.0612 
    136 H136       31.4754    2.2238   -3.8636 H         1 UNK         0.0624 
    137 H137       32.8733    1.2638   -3.4598 H         1 UNK         0.0624 
@<TRIPOS>BOND
     1    1    2 1    
     2    1   72 1    
     3    1   73 1    
     4    1   74 1    
     5    2    3 2    
     6    2    4 am   BACKBONE|DICT|INTERRES
     7    4    5 1    
     8    4   75 1    
     9    5    6 1    
    10    5   35 1    
    11    5   76 1    
    12    6    7 1    
    13    6   77 1    
    14    6   78 1    
    15    7    8 1    
    16    8    9 1    
    17    8   79 1    
    18    8   80 1    
    19    9   10 ar   
    20    9   14 ar   
    21   10   11 ar   
    22   10   81 1    
    23   11   12 ar   
    24   11   71 1    
    25   12   13 ar   
    26   12   82 1    
    27   13   14 ar   
    28   13   15 1    
    29   14   83 1    
    30   15   16 1    
    31   15   84 1    
    32   15   85 1    
    33   16   17 1    
    34   17   18 1    
    35   17   86 1    
    36   17   87 1    
    37   18   19 1    
    38   18   37 1    
    39   18   88 1    
    40   19   20 am   BACKBONE|DICT|INTERRES
    41   19   89 1    
    42   20   21 2    
    43   20   22 1    
    44   22   23 1    
    45   22   24 1    
    46   22   90 1    
    47   23   91 1    
    48   23   92 1    
    49   23   93 1    
    50   24   25 am   BACKBONE|DICT|INTERRES
    51   24   94 1    
    52   25   26 2    
    53   25   27 1    
    54   27   28 1    
    55   27   29 1    
    56   27   95 1    
    57   28   96 1    
    58   28   97 1    
    59   28   98 1    
    60   29   30 am   BACKBONE|DICT|INTERRES
    61   29   99 1    
    62   30   31 2    
    63   30   32 1    
    64   32   33 1    
    65   32   34 1    
    66   32  100 1    
    67   33  101 1    
    68   33  102 1    
    69   33  103 1    
    70   34   35 am   BACKBONE|DICT|INTERRES
    71   34  104 1    
    72   35   36 2    
    73   37   38 2    
    74   37   39 am   BACKBONE|DICT|INTERRES
    75   39   40 1    
    76   39  105 1    
    77   40   41 1    
    78   40   42 1    
    79   40  106 1    
    80   41  107 1    
    81   41  108 1    
    82   41  109 1    
    83   42   43 2    
    84   42   44 am   BACKBONE|DICT|INTERRES
    85   44   45 1    
    86   44  110 1    
    87   45   46 1    
    88   45   47 1    
    89   45  111 1    
    90   46  112 1    
    91   46  113 1    
    92   46  114 1    
    93   47   48 2    
    94   47   49 am   BACKBONE|DICT|INTERRES
    95   49   50 1    
    96   49  115 1    
    97   50   51 1    
    98   50   52 1    
    99   50  116 1    
   100   51  117 1    
   101   51  118 1    
   102   51  119 1    
   103   52   53 2    
   104   52   54 am   BACKBONE|DICT|INTERRES
   105   54   55 1    
   106   54  120 1    
   107   55   56 1    
   108   55   57 1    
   109   55  121 1    
   110   56  122 1    
   111   56  123 1    
   112   56  124 1    
   113   57   58 2    
   114   57   59 am   BACKBONE|DICT|INTERRES
   115   59   60 1    
   116   59  125 1    
   117   60   61 1    
   118   60   62 1    
   119   60  126 1    
   120   61  127 1    
   121   61  128 1    
   122   61  129 1    
   123   62   63 2    
   124   62   64 am   BACKBONE|DICT|INTERRES
   125   64   65 1    
   126   64  130 1    
   127   65   66 1    
   128   65   69 1    
   129   65  131 1    
   130   66   67 am   BACKBONE|DICT|INTERRES
   131   66   68 2    
   132   67  132 1    
   133   67  133 1    
   134   69   70 1    
   135   69  134 1    
   136   69  135 1    
   137   70   71 1    
   138   71  136 1    
   139   71  137 1    
@<TRIPOS>SUBSTRUCTURE
     1 UNK         1 GROUP             0       ****    0 ROOT    
