@<TRIPOS>MOLECULE
3R137
137   139    1
SMALL
USER_CHARGES


@<TRIPOS>ATOM
      1 CA         26.7992   -7.0181    0.5096 C.3       0 UNK        -0.2020 
      2 C          26.7939   -5.5332    0.8407 C.2       0 UNK         0.4855 
      3 O          26.0394   -5.1028    1.7132 O.2       0 UNK        -0.5197 
      4 N          27.6311   -4.7477    0.1507 N.am      1 UNK        -0.4892 
      5 CA         27.7558   -3.2940    0.3311 C.3       1 UNK         0.0835 
      6 C6         29.0565   -2.7408   -0.2985 C.3       12 UNK        -0.0855 
      7 S7         30.5627   -3.4046    0.4918 S.3       12 UNK        -0.2931 
      8 C8         31.0835   -4.7188   -0.6619 C.3       12 UNK         0.0378 
      9 C9         31.3384   -4.2036   -2.0727 C.ar      12 UNK        -0.0802 
     10 C10        32.3410   -3.2582   -2.3058 C.ar      12 UNK        -0.0944 
     11 C11        32.5859   -2.7892   -3.5985 C.ar      12 UNK        -0.0787 
     12 C12        31.8405   -3.2943   -4.6665 C.ar      12 UNK        -0.0862 
     13 C13        30.8147   -4.2205   -4.4473 C.ar      12 UNK        -0.0733 
     14 C14        30.5754   -4.6761   -3.1466 C.ar      12 UNK        -0.0832 
     15 C15        29.9801   -4.7655   -5.6038 C.3       12 UNK         0.0240 
     16 S16        29.5680   -3.5216   -6.8733 S.3       12 UNK        -0.2522 
     17 C17        28.3921   -2.4409   -5.9957 C.3       12 UNK        -0.0967 
     18 CA         27.6491   -1.4989   -6.9816 C.3       5 UNK         0.0660 
     19 N          26.2606   -1.2564   -6.5751 N.am      5 UNK        -0.4015 
     20 C          25.3211   -0.7554   -7.3943 C.2       4 UNK         0.4946 
     21 O          25.5284   -0.4709   -8.5726 O.2       4 UNK        -0.5353 
     22 CA         23.9228   -0.4880   -6.8076 C.3       4 UNK         0.0277 
     23 CB         23.0313   -1.7298   -6.9659 C.3       4 UNK        -0.1981 
     24 N          23.9410   -0.0804   -5.4032 N.am      4 UNK        -0.4209 
     25 C          24.6079    0.9706   -4.9047 C.2       3 UNK         0.4942 
     26 O          25.2168    1.7845   -5.5978 O.2       3 UNK        -0.5208 
     27 CA         24.6586    1.1026   -3.3724 C.3       3 UNK         0.0250 
     28 CB         23.6476    2.1558   -2.8927 C.3       3 UNK        -0.1990 
     29 N          24.4318   -0.1572   -2.6508 N.am      3 UNK        -0.4232 
     30 C          25.1850   -1.2616   -2.7612 C.2       2 UNK         0.4993 
     31 O          26.1498   -1.3671   -3.5251 O.2       2 UNK        -0.5286 
     32 CA         24.7401   -2.4767   -1.9331 C.3       2 UNK         0.0209 
     33 CB         24.0712   -3.5246   -2.8384 C.3       2 UNK        -0.1931 
     34 N          25.8723   -3.0903   -1.2416 N.am      2 UNK        -0.4546 
     35 C          26.5381   -2.5262   -0.2235 C.2       1 UNK         0.5154 
     36 O          26.2243   -1.4462    0.2804 O.2       1 UNK        -0.5181 
     37 C          28.4082   -0.1748   -7.2179 C.2       5 UNK         0.5014 
     38 O          29.1437   -0.0518   -8.2001 O.2       5 UNK        -0.5248 
     39 N          28.1726    0.8164   -6.3452 N.am      6 UNK        -0.4434 
     40 CA         28.6940    2.1758   -6.4898 C.3       6 UNK         0.0363 
     41 CB         28.5210    2.9508   -5.1746 C.3       6 UNK        -0.1936 
     42 C          28.0454    2.9202   -7.6680 C.2       6 UNK         0.5081 
     43 O          28.7578    3.5692   -8.4320 O.2       6 UNK        -0.5248 
     44 N          26.7222    2.7740   -7.8345 N.am      7 UNK        -0.4718 
     45 CA         25.9548    3.3328   -8.9555 C.3       7 UNK         0.0273 
     46 CB         24.4546    3.0980   -8.7249 C.3       7 UNK        -0.1935 
     47 C          26.3859    2.7776  -10.3258 C.2       7 UNK         0.5018 
     48 O          26.4047    3.5265  -11.3028 O.2       7 UNK        -0.5186 
     49 N          26.7700    1.4939  -10.3633 N.am      8 UNK        -0.4240 
     50 CA         27.3689    0.8215  -11.5201 C.3       8 UNK         0.0235 
     51 CB         27.2403   -0.7002  -11.3306 C.3       8 UNK        -0.2000 
     52 C          28.8404    1.2076  -11.7784 C.2       8 UNK         0.4941 
     53 O          29.4059    0.7372  -12.7663 O.2       8 UNK        -0.5273 
     54 N          29.4406    2.0254  -10.8980 N.am      9 UNK        -0.4262 
     55 CA         30.8364    2.4793  -10.9027 C.3       9 UNK         0.0264 
     56 CB         31.1545    3.3140  -12.1621 C.3       9 UNK        -0.1955 
     57 C          31.8539    1.3484  -10.6554 C.2       9 UNK         0.5031 
     58 O          33.0138    1.4768  -11.0517 O.2       9 UNK        -0.5390 
     59 N          31.4212    0.2793   -9.9730 N.am      10 UNK        -0.4204 
     60 CA         32.2686   -0.8259   -9.5191 C.3       10 UNK         0.0237 
     61 CB         31.4963   -2.1439   -9.6911 C.3       10 UNK        -0.1985 
     62 C          32.7482   -0.6257   -8.0675 C.2       10 UNK         0.4970 
     63 O          33.5013   -1.4595   -7.5639 O.2       10 UNK        -0.4914 
     64 N          32.3332    0.4765   -7.4332 N.am      11 UNK        -0.4285 
     65 CA         32.7641    0.9393   -6.1132 C.3       11 UNK         0.1007 
     66 C          32.7323    2.4903   -6.0418 C.2       11 UNK         0.5703 
     67 N          33.1595    3.0718   -4.9304 N.am      11 UNK        -0.7361 
     68 O          32.3234    3.1719   -6.9811 O.2       11 UNK        -0.4986 
     69 C69        31.9708    0.2508   -4.9668 C.3       12 UNK        -0.0947 
     70 S70        33.0145   -0.0558   -3.5014 S.3       12 UNK        -0.2240 
     71 C71        33.6499   -1.7297   -3.8370 C.3       12 UNK         0.0194 
     72 H72        25.8120   -7.3300    0.1694 H         1 UNK         0.0906 
     73 H73        27.0529   -7.5987    1.3962 H         1 UNK         0.0906 
     74 H74        27.5195   -7.2612   -0.2713 H         1 UNK         0.0906 
     75 H75        28.2380   -5.1574   -0.5430 H         1 UNK         0.3140 
     76 H76        27.7879   -3.0919    1.4045 H         1 UNK         0.1085 
     77 H77        29.0984   -1.6554   -0.1843 H         1 UNK         0.0836 
     78 H78        29.0743   -2.9212   -1.3743 H         1 UNK         0.0836 
     79 H79        32.0011   -5.1708   -0.2827 H         1 UNK         0.0731 
     80 H80        30.3361   -5.5127   -0.6632 H         1 UNK         0.0731 
     81 H81        32.9209   -2.8761   -1.4766 H         1 UNK         0.1312 
     82 H82        32.0485   -2.9475   -5.6697 H         1 UNK         0.1406 
     83 H83        29.7977   -5.4072   -2.9726 H         1 UNK         0.1631 
     84 H84        29.0531   -5.2093   -5.2373 H         1 UNK         0.0717 
     85 H85        30.5405   -5.5708   -6.0800 H         1 UNK         0.0717 
     86 H86        27.6798   -3.0902   -5.4836 H         1 UNK         0.0934 
     87 H87        28.9101   -1.8910   -5.2067 H         1 UNK         0.0934 
     88 H88        27.5907   -1.9995   -7.9512 H         1 UNK         0.0739 
     89 H89        26.0370   -1.4210   -5.5988 H         1 UNK         0.3093 
     90 H90        23.4745    0.3274   -7.3769 H         1 UNK         0.0818 
     91 H91        22.9827   -2.0434   -8.0099 H         1 UNK         0.0819 
     92 H92        23.4077   -2.5757   -6.3891 H         1 UNK         0.0819 
     93 H93        22.0093   -1.5299   -6.6432 H         1 UNK         0.0819 
     94 H94        23.4599   -0.6820   -4.7516 H         1 UNK         0.3041 
     95 H95        25.6620    1.4492   -3.1160 H         1 UNK         0.0784 
     96 H96        23.8107    3.1105   -3.3955 H         1 UNK         0.0793 
     97 H97        22.6197    1.8523   -3.0960 H         1 UNK         0.0793 
     98 H98        23.7402    2.3375   -1.8218 H         1 UNK         0.0793 
     99 H99        23.6533   -0.1648   -2.0067 H         1 UNK         0.3024 
    100 H100       24.0178   -2.1552   -1.1790 H         1 UNK         0.1171 
    101 H101       23.2005   -3.1066   -3.3453 H         1 UNK         0.0786 
    102 H102       23.7262   -4.3838   -2.2627 H         1 UNK         0.0786 
    103 H103       24.7529   -3.8888   -3.6085 H         1 UNK         0.0786 
    104 H104       26.2085   -3.9701   -1.6034 H         1 UNK         0.2977 
    105 H105       27.5144    0.6584   -5.5955 H         1 UNK         0.3127 
    106 H106       29.7626    2.1029   -6.6976 H         1 UNK         0.0770 
    107 H107       29.0295    2.4519   -4.3496 H         1 UNK         0.0814 
    108 H108       28.9467    3.9517   -5.2578 H         1 UNK         0.0814 
    109 H109       27.4714    3.0658   -4.9029 H         1 UNK         0.0814 
    110 H110       26.1964    2.2719   -7.1217 H         1 UNK         0.2983 
    111 H111       26.1338    4.4101   -8.9671 H         1 UNK         0.0947 
    112 H112       24.2054    2.0383   -8.7629 H         1 UNK         0.0806 
    113 H113       23.8611    3.5980   -9.4914 H         1 UNK         0.0806 
    114 H114       24.1325    3.4864   -7.7584 H         1 UNK         0.0806 
    115 H115       26.6343    0.9251   -9.5327 H         1 UNK         0.3000 
    116 H116       26.8032    1.1033  -12.4105 H         1 UNK         0.0850 
    117 H117       27.6377   -1.2411  -12.1903 H         1 UNK         0.0810 
    118 H118       26.1979   -0.9986  -11.2171 H         1 UNK         0.0810 
    119 H119       27.7841   -1.0426  -10.4493 H         1 UNK         0.0810 
    120 H120       28.8933    2.3664  -10.1146 H         1 UNK         0.3040 
    121 H121       30.9306    3.1461  -10.0443 H         1 UNK         0.0766 
    122 H122       31.1711    2.7007  -13.0633 H         1 UNK         0.0812 
    123 H123       32.1320    3.7903  -12.0782 H         1 UNK         0.0812 
    124 H124       30.4212    4.1071  -12.3077 H         1 UNK         0.0812 
    125 H125       30.4625    0.2625   -9.6314 H         1 UNK         0.3205 
    126 H126       33.1660   -0.8860  -10.1381 H         1 UNK         0.0754 
    127 H127       32.0568   -2.9912   -9.2936 H         1 UNK         0.0769 
    128 H128       31.3017   -2.3489  -10.7438 H         1 UNK         0.0769 
    129 H129       30.5358   -2.1148   -9.1794 H         1 UNK         0.0769 
    130 H130       31.7514    1.1341   -7.9327 H         1 UNK         0.2981 
    131 H131       33.8198    0.6730   -6.0318 H         1 UNK         0.0541 
    132 H132       33.1482    4.0773   -4.8642 H         1 UNK         0.3459 
    133 H133       33.4781    2.5166   -4.1507 H         1 UNK         0.3459 
    134 H134       31.5488   -0.6950   -5.3017 H         1 UNK         0.0612 
    135 H135       31.1083    0.8481   -4.6659 H         1 UNK         0.0612 
    136 H136       34.0272   -1.7807   -4.8594 H         1 UNK         0.0624 
    137 H137       34.5049   -1.9178   -3.1861 H         1 UNK         0.0624 
@<TRIPOS>BOND
     1    1    2 1    
     2    1   72 1    
     3    1   73 1    
     4    1   74 1    
     5    2    3 2    
     6    2    4 am   BACKBONE|DICT|INTERRES
     7    4    5 1    
     8    4   75 1    
     9    5    6 1    
    10    5   35 1    
    11    5   76 1    
    12    6    7 1    
    13    6   77 1    
    14    6   78 1    
    15    7    8 1    
    16    8    9 1    
    17    8   79 1    
    18    8   80 1    
    19    9   10 ar   
    20    9   14 ar   
    21   10   11 ar   
    22   10   81 1    
    23   11   12 ar   
    24   11   71 1    
    25   12   13 ar   
    26   12   82 1    
    27   13   14 ar   
    28   13   15 1    
    29   14   83 1    
    30   15   16 1    
    31   15   84 1    
    32   15   85 1    
    33   16   17 1    
    34   17   18 1    
    35   17   86 1    
    36   17   87 1    
    37   18   19 1    
    38   18   37 1    
    39   18   88 1    
    40   19   20 am   BACKBONE|DICT|INTERRES
    41   19   89 1    
    42   20   21 2    
    43   20   22 1    
    44   22   23 1    
    45   22   24 1    
    46   22   90 1    
    47   23   91 1    
    48   23   92 1    
    49   23   93 1    
    50   24   25 am   BACKBONE|DICT|INTERRES
    51   24   94 1    
    52   25   26 2    
    53   25   27 1    
    54   27   28 1    
    55   27   29 1    
    56   27   95 1    
    57   28   96 1    
    58   28   97 1    
    59   28   98 1    
    60   29   30 am   BACKBONE|DICT|INTERRES
    61   29   99 1    
    62   30   31 2    
    63   30   32 1    
    64   32   33 1    
    65   32   34 1    
    66   32  100 1    
    67   33  101 1    
    68   33  102 1    
    69   33  103 1    
    70   34   35 am   BACKBONE|DICT|INTERRES
    71   34  104 1    
    72   35   36 2    
    73   37   38 2    
    74   37   39 am   BACKBONE|DICT|INTERRES
    75   39   40 1    
    76   39  105 1    
    77   40   41 1    
    78   40   42 1    
    79   40  106 1    
    80   41  107 1    
    81   41  108 1    
    82   41  109 1    
    83   42   43 2    
    84   42   44 am   BACKBONE|DICT|INTERRES
    85   44   45 1    
    86   44  110 1    
    87   45   46 1    
    88   45   47 1    
    89   45  111 1    
    90   46  112 1    
    91   46  113 1    
    92   46  114 1    
    93   47   48 2    
    94   47   49 am   BACKBONE|DICT|INTERRES
    95   49   50 1    
    96   49  115 1    
    97   50   51 1    
    98   50   52 1    
    99   50  116 1    
   100   51  117 1    
   101   51  118 1    
   102   51  119 1    
   103   52   53 2    
   104   52   54 am   BACKBONE|DICT|INTERRES
   105   54   55 1    
   106   54  120 1    
   107   55   56 1    
   108   55   57 1    
   109   55  121 1    
   110   56  122 1    
   111   56  123 1    
   112   56  124 1    
   113   57   58 2    
   114   57   59 am   BACKBONE|DICT|INTERRES
   115   59   60 1    
   116   59  125 1    
   117   60   61 1    
   118   60   62 1    
   119   60  126 1    
   120   61  127 1    
   121   61  128 1    
   122   61  129 1    
   123   62   63 2    
   124   62   64 am   BACKBONE|DICT|INTERRES
   125   64   65 1    
   126   64  130 1    
   127   65   66 1    
   128   65   69 1    
   129   65  131 1    
   130   66   67 am   BACKBONE|DICT|INTERRES
   131   66   68 2    
   132   67  132 1    
   133   67  133 1    
   134   69   70 1    
   135   69  134 1    
   136   69  135 1    
   137   70   71 1    
   138   71  136 1    
   139   71  137 1    
@<TRIPOS>SUBSTRUCTURE
     1 UNK         1 GROUP             0       ****    0 ROOT    
