@<TRIPOS>MOLECULE
3R137
137   139    1
SMALL
USER_CHARGES


@<TRIPOS>ATOM
      1 CA         23.2976   -3.8914   -1.5999 C.3       0 UNK        -0.2020 
      2 C          24.6300   -3.2771   -1.1987 C.2       0 UNK         0.4855 
      3 O          24.6503   -2.2971   -0.4544 O.2       0 UNK        -0.5197 
      4 N          25.7423   -3.8463   -1.6820 N.am      1 UNK        -0.4892 
      5 CA         27.1068   -3.3870   -1.4021 C.3       1 UNK         0.0835 
      6 C6         28.1514   -4.4228   -1.8757 C.3       12 UNK        -0.0855 
      7 S7         29.7831   -4.2046   -1.0806 S.3       12 UNK        -0.2931 
      8 C8         30.7789   -5.4990   -1.8945 C.3       12 UNK         0.0378 
      9 C9         30.9881   -5.1982   -3.3712 C.ar      12 UNK        -0.0802 
     10 C10        32.0575   -4.4002   -3.7928 C.ar      12 UNK        -0.0944 
     11 C11        32.2092   -4.0745   -5.1456 C.ar      12 UNK        -0.0787 
     12 C12        31.2782   -4.5521   -6.0734 C.ar      12 UNK        -0.0862 
     13 C13        30.1881   -5.3178   -5.6553 C.ar      12 UNK        -0.0733 
     14 C14        30.0764   -5.6806   -4.3131 C.ar      12 UNK        -0.0832 
     15 C15        29.0714   -5.6588   -6.6284 C.3       12 UNK         0.0240 
     16 S16        27.5922   -4.6417   -6.2895 S.3       12 UNK        -0.2522 
     17 C17        28.2838   -2.9500   -6.3411 C.3       12 UNK        -0.0967 
     18 CA         27.2701   -1.9206   -6.8831 C.3       5 UNK         0.0660 
     19 N          26.0949   -1.7725   -6.0182 N.am      5 UNK        -0.4015 
     20 C          24.9149   -1.3070   -6.4524 C.2       4 UNK         0.4946 
     21 O          24.7075   -0.9448   -7.6108 O.2       4 UNK        -0.5353 
     22 CA         23.7871   -1.1995   -5.4159 C.3       4 UNK         0.0277 
     23 CB         23.2924   -2.5940   -4.9983 C.3       4 UNK        -0.1981 
     24 N          24.1903   -0.4368   -4.2330 N.am      4 UNK        -0.4209 
     25 C          24.4214    0.8852   -4.2245 C.2       3 UNK         0.4942 
     26 O          24.3077    1.6131   -5.2097 O.2       3 UNK        -0.5208 
     27 CA         24.9238    1.4769   -2.9055 C.3       3 UNK         0.0250 
     28 CB         23.8662    1.3914   -1.7893 C.3       3 UNK        -0.1990 
     29 N          26.1386    0.7673   -2.5277 N.am      3 UNK        -0.4232 
     30 C          27.1381    1.2195   -1.7702 C.2       2 UNK         0.4993 
     31 O          27.1322    2.3211   -1.2185 O.2       2 UNK        -0.5286 
     32 CA         28.3508    0.2724   -1.6233 C.3       2 UNK         0.0209 
     33 CB         29.3784    0.7914   -0.6005 C.3       2 UNK        -0.1931 
     34 N          27.9868   -1.1036   -1.2628 N.am      2 UNK        -0.4546 
     35 C          27.3642   -2.0045   -2.0359 C.2       1 UNK         0.5154 
     36 O          26.9880   -1.7800   -3.1942 O.2       1 UNK        -0.5181 
     37 C          27.9506   -0.5663   -7.1555 C.2       5 UNK         0.5014 
     38 O          28.5602   -0.4105   -8.2125 O.2       5 UNK        -0.5248 
     39 N          27.7927    0.4066   -6.2439 N.am      6 UNK        -0.4434 
     40 CA         28.2848    1.7830   -6.3874 C.3       6 UNK         0.0363 
     41 CB         28.0720    2.5442   -5.0710 C.3       6 UNK        -0.1936 
     42 C          27.6579    2.5595   -7.5639 C.2       6 UNK         0.5081 
     43 O          28.2325    3.5543   -8.0058 O.2       6 UNK        -0.5248 
     44 N          26.4977    2.1019   -8.0539 N.am      7 UNK        -0.4718 
     45 CA         25.8516    2.6168   -9.2610 C.3       7 UNK         0.0273 
     46 CB         24.3403    2.3523   -9.1615 C.3       7 UNK        -0.1935 
     47 C          26.4203    2.0006  -10.5543 C.2       7 UNK         0.5018 
     48 O          26.1922    2.5647  -11.6254 O.2       7 UNK        -0.5186 
     49 N          27.1157    0.8584  -10.4507 N.am      8 UNK        -0.4240 
     50 CA         27.6377    0.0907  -11.5839 C.3       8 UNK         0.0235 
     51 CB         27.2882   -1.3942  -11.3849 C.3       8 UNK        -0.2000 
     52 C          29.1548    0.2579  -11.7565 C.2       8 UNK         0.4941 
     53 O          29.6261    0.2891  -12.8943 O.2       8 UNK        -0.5273 
     54 N          29.8925    0.3492  -10.6451 N.am      9 UNK        -0.4262 
     55 CA         31.3478    0.4722  -10.5946 C.3       9 UNK         0.0264 
     56 CB         31.9553   -0.9280  -10.3914 C.3       9 UNK        -0.1955 
     57 C          31.7377    1.4165   -9.4515 C.2       9 UNK         0.5031 
     58 O          30.8892    1.7744   -8.6331 O.2       9 UNK        -0.5390 
     59 N          33.0232    1.7867   -9.3803 N.am      10 UNK        -0.4204 
     60 CA         33.6035    2.6636   -8.3523 C.3       10 UNK         0.0237 
     61 CB         34.9357    3.2315   -8.8787 C.3       10 UNK        -0.1985 
     62 C          33.7527    1.9776   -6.9738 C.2       10 UNK         0.4970 
     63 O          34.8312    2.0136   -6.3784 O.2       10 UNK        -0.4914 
     64 N          32.6666    1.3597   -6.5029 N.am      11 UNK        -0.4285 
     65 CA         32.5630    0.6056   -5.2448 C.3       11 UNK         0.1007 
     66 C          31.8754    1.4077   -4.1037 C.2       11 UNK         0.5703 
     67 N          31.5060    2.6681   -4.3012 N.am      11 UNK        -0.7361 
     68 O          31.6881    0.8835   -3.0100 O.2       11 UNK        -0.4986 
     69 C69        31.8767   -0.7669   -5.4764 C.3       12 UNK        -0.0947 
     70 S70        32.8091   -1.8024   -6.6561 S.3       12 UNK        -0.2240 
     71 C71        33.3610   -3.1855   -5.6013 C.3       12 UNK         0.0194 
     72 H72        22.6124   -3.1163   -1.9411 H         1 UNK         0.0906 
     73 H73        23.4087   -4.6236   -2.3992 H         1 UNK         0.0906 
     74 H74        22.8442   -4.3891   -0.7432 H         1 UNK         0.0906 
     75 H75        25.6645   -4.6330   -2.3106 H         1 UNK         0.3140 
     76 H76        27.1854   -3.2923   -0.3164 H         1 UNK         0.1085 
     77 H77        27.8125   -5.4337   -1.6427 H         1 UNK         0.0836 
     78 H78        28.2488   -4.3742   -2.9603 H         1 UNK         0.0836 
     79 H79        31.7446   -5.5710   -1.3918 H         1 UNK         0.0731 
     80 H80        30.2951   -6.4685   -1.7650 H         1 UNK         0.0731 
     81 H81        32.7581   -4.0170   -3.0634 H         1 UNK         0.1312 
     82 H82        31.3714   -4.2757   -7.1147 H         1 UNK         0.1406 
     83 H83        29.2313   -6.2744   -3.9918 H         1 UNK         0.1631 
     84 H84        28.8123   -6.7148   -6.5400 H         1 UNK         0.0717 
     85 H85        29.3895   -5.5011   -7.6602 H         1 UNK         0.0717 
     86 H86        28.6288   -2.6774   -5.3413 H         1 UNK         0.0934 
     87 H87        29.1695   -2.9593   -6.9793 H         1 UNK         0.0934 
     88 H88        26.9278   -2.2878   -7.8538 H         1 UNK         0.0739 
     89 H89        26.2167   -2.0250   -5.0424 H         1 UNK         0.3093 
     90 H90        22.9537   -0.6742   -5.8881 H         1 UNK         0.0818 
     91 H91        22.4223   -2.5250   -4.3458 H         1 UNK         0.0819 
     92 H92        22.9925   -3.1771   -5.8703 H         1 UNK         0.0819 
     93 H93        24.0639   -3.1626   -4.4782 H         1 UNK         0.0819 
     94 H94        24.2981   -0.9546   -3.3732 H         1 UNK         0.3041 
     95 H95        25.1653    2.5277   -3.0800 H         1 UNK         0.0784 
     96 H96        22.9334    1.8654   -2.0975 H         1 UNK         0.0793 
     97 H97        23.6389    0.3597   -1.5181 H         1 UNK         0.0793 
     98 H98        24.2054    1.9018   -0.8878 H         1 UNK         0.0793 
     99 H99        26.2660   -0.1608   -2.9260 H         1 UNK         0.3024 
    100 H100       28.8451    0.2395   -2.5968 H         1 UNK         0.1171 
    101 H101       29.7368    1.7844   -0.8756 H         1 UNK         0.0786 
    102 H102       30.2529    0.1419   -0.5534 H         1 UNK         0.0786 
    103 H103       28.9534    0.8610    0.4014 H         1 UNK         0.0786 
    104 H104       28.2384   -1.3845   -0.3259 H         1 UNK         0.2977 
    105 H105       27.2621    0.1962   -5.4130 H         1 UNK         0.3127 
    106 H106       29.3585    1.7278   -6.5704 H         1 UNK         0.0770 
    107 H107       27.0159    2.6201   -4.8136 H         1 UNK         0.0814 
    108 H108       28.4607    3.5609   -5.1437 H         1 UNK         0.0814 
    109 H109       28.5956    2.0638   -4.2462 H         1 UNK         0.0814 
    110 H110       26.0609    1.3048   -7.6105 H         1 UNK         0.2983 
    111 H111       26.0044    3.6970   -9.3171 H         1 UNK         0.0947 
    112 H112       23.8128    2.7707  -10.0198 H         1 UNK         0.0806 
    113 H113       23.9157    2.8074   -8.2662 H         1 UNK         0.0806 
    114 H114       24.1185    1.2848   -9.1310 H         1 UNK         0.0806 
    115 H115       27.3233    0.4937   -9.5278 H         1 UNK         0.3000 
    116 H116       27.1638    0.4218  -12.5106 H         1 UNK         0.0850 
    117 H117       27.6395   -1.9935  -12.2260 H         1 UNK         0.0810 
    118 H118       26.2104   -1.5405  -11.3102 H         1 UNK         0.0810 
    119 H119       27.7442   -1.8016  -10.4816 H         1 UNK         0.0810 
    120 H120       29.4393    0.3274   -9.7330 H         1 UNK         0.3040 
    121 H121       31.7215    0.9048  -11.5251 H         1 UNK         0.0766 
    122 H122       33.0436   -0.8908  -10.3344 H         1 UNK         0.0812 
    123 H123       31.6989   -1.5926  -11.2165 H         1 UNK         0.0812 
    124 H124       31.5945   -1.3882   -9.4703 H         1 UNK         0.0812 
    125 H125       33.6672    1.4204  -10.0668 H         1 UNK         0.3205 
    126 H126       32.9246    3.5066   -8.2064 H         1 UNK         0.0754 
    127 H127       35.3667    3.9416   -8.1714 H         1 UNK         0.0769 
    128 H128       34.7964    3.7636   -9.8200 H         1 UNK         0.0769 
    129 H129       35.6733    2.4448   -9.0425 H         1 UNK         0.0769 
    130 H130       31.8284    1.3966   -7.0781 H         1 UNK         0.2981 
    131 H131       33.5688    0.4010   -4.8742 H         1 UNK         0.0541 
    132 H132       31.6759    3.1180   -5.1854 H         1 UNK         0.3459 
    133 H133       31.0820    3.1807   -3.5453 H         1 UNK         0.3459 
    134 H134       30.8674   -0.6284   -5.8675 H         1 UNK         0.0612 
    135 H135       31.7663   -1.3106   -4.5365 H         1 UNK         0.0612 
    136 H136       33.9073   -2.7814   -4.7476 H         1 UNK         0.0624 
    137 H137       34.0695   -3.7937   -6.1648 H         1 UNK         0.0624 
@<TRIPOS>BOND
     1    1    2 1    
     2    1   72 1    
     3    1   73 1    
     4    1   74 1    
     5    2    3 2    
     6    2    4 am   BACKBONE|DICT|INTERRES
     7    4    5 1    
     8    4   75 1    
     9    5    6 1    
    10    5   35 1    
    11    5   76 1    
    12    6    7 1    
    13    6   77 1    
    14    6   78 1    
    15    7    8 1    
    16    8    9 1    
    17    8   79 1    
    18    8   80 1    
    19    9   10 ar   
    20    9   14 ar   
    21   10   11 ar   
    22   10   81 1    
    23   11   12 ar   
    24   11   71 1    
    25   12   13 ar   
    26   12   82 1    
    27   13   14 ar   
    28   13   15 1    
    29   14   83 1    
    30   15   16 1    
    31   15   84 1    
    32   15   85 1    
    33   16   17 1    
    34   17   18 1    
    35   17   86 1    
    36   17   87 1    
    37   18   19 1    
    38   18   37 1    
    39   18   88 1    
    40   19   20 am   BACKBONE|DICT|INTERRES
    41   19   89 1    
    42   20   21 2    
    43   20   22 1    
    44   22   23 1    
    45   22   24 1    
    46   22   90 1    
    47   23   91 1    
    48   23   92 1    
    49   23   93 1    
    50   24   25 am   BACKBONE|DICT|INTERRES
    51   24   94 1    
    52   25   26 2    
    53   25   27 1    
    54   27   28 1    
    55   27   29 1    
    56   27   95 1    
    57   28   96 1    
    58   28   97 1    
    59   28   98 1    
    60   29   30 am   BACKBONE|DICT|INTERRES
    61   29   99 1    
    62   30   31 2    
    63   30   32 1    
    64   32   33 1    
    65   32   34 1    
    66   32  100 1    
    67   33  101 1    
    68   33  102 1    
    69   33  103 1    
    70   34   35 am   BACKBONE|DICT|INTERRES
    71   34  104 1    
    72   35   36 2    
    73   37   38 2    
    74   37   39 am   BACKBONE|DICT|INTERRES
    75   39   40 1    
    76   39  105 1    
    77   40   41 1    
    78   40   42 1    
    79   40  106 1    
    80   41  107 1    
    81   41  108 1    
    82   41  109 1    
    83   42   43 2    
    84   42   44 am   BACKBONE|DICT|INTERRES
    85   44   45 1    
    86   44  110 1    
    87   45   46 1    
    88   45   47 1    
    89   45  111 1    
    90   46  112 1    
    91   46  113 1    
    92   46  114 1    
    93   47   48 2    
    94   47   49 am   BACKBONE|DICT|INTERRES
    95   49   50 1    
    96   49  115 1    
    97   50   51 1    
    98   50   52 1    
    99   50  116 1    
   100   51  117 1    
   101   51  118 1    
   102   51  119 1    
   103   52   53 2    
   104   52   54 am   BACKBONE|DICT|INTERRES
   105   54   55 1    
   106   54  120 1    
   107   55   56 1    
   108   55   57 1    
   109   55  121 1    
   110   56  122 1    
   111   56  123 1    
   112   56  124 1    
   113   57   58 2    
   114   57   59 am   BACKBONE|DICT|INTERRES
   115   59   60 1    
   116   59  125 1    
   117   60   61 1    
   118   60   62 1    
   119   60  126 1    
   120   61  127 1    
   121   61  128 1    
   122   61  129 1    
   123   62   63 2    
   124   62   64 am   BACKBONE|DICT|INTERRES
   125   64   65 1    
   126   64  130 1    
   127   65   66 1    
   128   65   69 1    
   129   65  131 1    
   130   66   67 am   BACKBONE|DICT|INTERRES
   131   66   68 2    
   132   67  132 1    
   133   67  133 1    
   134   69   70 1    
   135   69  134 1    
   136   69  135 1    
   137   70   71 1    
   138   71  136 1    
   139   71  137 1    
@<TRIPOS>SUBSTRUCTURE
     1 UNK         1 GROUP             0       ****    0 ROOT    
