@<TRIPOS>MOLECULE
3R137
137   139    1
SMALL
USER_CHARGES


@<TRIPOS>ATOM
      1 CA         28.9583   -7.0728   -4.2099 C.3       0 UNK        -0.2020 
      2 C          27.6710   -6.8023   -3.4448 C.2       0 UNK         0.4855 
      3 O          26.7849   -7.6571   -3.4097 O.2       0 UNK        -0.5197 
      4 N          27.5659   -5.6210   -2.8272 N.am      1 UNK        -0.4892 
      5 CA         26.3655   -5.1296   -2.1451 C.3       1 UNK         0.0835 
      6 C6         26.7286   -4.0666   -1.0716 C.3       12 UNK        -0.0855 
      7 S7         27.6249   -2.6126   -1.7306 S.3       12 UNK        -0.2931 
      8 C8         29.3070   -2.9427   -1.1251 C.3       12 UNK         0.0378 
      9 C9         30.3284   -2.0826   -1.8508 C.ar      12 UNK        -0.0802 
     10 C10        31.0489   -2.6056   -2.9277 C.ar      12 UNK        -0.0944 
     11 C11        32.0010   -1.8283   -3.5964 C.ar      12 UNK        -0.0787 
     12 C12        32.2401   -0.5187   -3.1601 C.ar      12 UNK        -0.0862 
     13 C13        31.5338    0.0126   -2.0746 C.ar      12 UNK        -0.0733 
     14 C14        30.5728   -0.7731   -1.4306 C.ar      12 UNK        -0.0832 
     15 C15        31.8417    1.4127   -1.5528 C.3       12 UNK         0.0240 
     16 S16        31.4091    2.7421   -2.7218 S.3       12 UNK        -0.2522 
     17 C17        29.6309    2.4542   -3.0153 C.3       12 UNK        -0.0967 
     18 CA         29.3832    2.0158   -4.4846 C.3       5 UNK         0.0660 
     19 N          28.6332    0.7599   -4.5808 N.am      5 UNK        -0.4015 
     20 C          28.4239    0.0794   -5.7165 C.2       4 UNK         0.4946 
     21 O          28.9363    0.3829   -6.7969 O.2       4 UNK        -0.5353 
     22 CA         27.4322   -1.0973   -5.6680 C.3       4 UNK         0.0277 
     23 CB         28.2030   -2.4239   -5.6128 C.3       4 UNK        -0.1981 
     24 N          26.4391   -1.0523   -4.5817 N.am      4 UNK        -0.4209 
     25 C          25.5988   -0.0387   -4.3124 C.2       3 UNK         0.4942 
     26 O          25.5987    1.0232   -4.9381 O.2       3 UNK        -0.5208 
     27 CA         24.6359   -0.2123   -3.1213 C.3       3 UNK         0.0250 
     28 CB         23.4893    0.8222   -3.1274 C.3       3 UNK        -0.1990 
     29 N          24.1133   -1.5758   -2.9793 N.am      3 UNK        -0.4232 
     30 C          23.3546   -2.2612   -3.8507 C.2       2 UNK         0.4993 
     31 O          22.9483   -1.8058   -4.9209 O.2       2 UNK        -0.5286 
     32 CA         23.0046   -3.7107   -3.4427 C.3       2 UNK         0.0209 
     33 CB         22.5299   -4.5720   -4.6336 C.3       2 UNK        -0.1931 
     34 N          24.0954   -4.3799   -2.7119 N.am      2 UNK        -0.4546 
     35 C          25.3431   -4.5819   -3.1643 C.2       1 UNK         0.5154 
     36 O          25.7085   -4.2871   -4.3043 O.2       1 UNK        -0.5181 
     37 C          28.7841    3.1514   -5.3465 C.2       5 UNK         0.5014 
     38 O          29.5381    3.9916   -5.8384 O.2       5 UNK        -0.5248 
     39 N          27.4601    3.1312   -5.5516 N.am      6 UNK        -0.4434 
     40 CA         26.7481    4.0115   -6.4741 C.3       6 UNK         0.0363 
     41 CB         25.5355    4.6304   -5.7580 C.3       6 UNK        -0.1936 
     42 C          26.3045    3.2303   -7.7185 C.2       6 UNK         0.5081 
     43 O          26.5977    3.6543   -8.8356 O.2       6 UNK        -0.5248 
     44 N          25.6169    2.0984   -7.5082 N.am      7 UNK        -0.4718 
     45 CA         24.9269    1.3181   -8.5413 C.3       7 UNK         0.0273 
     46 CB         24.0526    0.2481   -7.8668 C.3       7 UNK        -0.1935 
     47 C          25.8452    0.6771   -9.5945 C.2       7 UNK         0.5018 
     48 O          25.4063    0.4897  -10.7299 O.2       7 UNK        -0.5186 
     49 N          27.0892    0.3646   -9.2129 N.am      8 UNK        -0.4240 
     50 CA         28.1258   -0.1728  -10.0965 C.3       8 UNK         0.0235 
     51 CB         28.4924   -1.5949   -9.6329 C.3       8 UNK        -0.2000 
     52 C          29.3568    0.7488  -10.1388 C.2       8 UNK         0.4941 
     53 O          30.4114    0.3090  -10.5984 O.2       8 UNK        -0.5273 
     54 N          29.2167    1.9916   -9.6446 N.am      9 UNK        -0.4262 
     55 CA         30.2513    3.0284   -9.5347 C.3       9 UNK         0.0264 
     56 CB         30.5533    3.6226  -10.9266 C.3       9 UNK        -0.1955 
     57 C          31.5210    2.5492   -8.7990 C.2       9 UNK         0.5031 
     58 O          32.6325    2.8105   -9.2635 O.2       9 UNK        -0.5390 
     59 N          31.3187    1.8371   -7.6803 N.am      10 UNK        -0.4204 
     60 CA         32.3301    1.1412   -6.8781 C.3       10 UNK         0.0237 
     61 CB         33.4040    2.0980   -6.3170 C.3       10 UNK        -0.1985 
     62 C          32.8900   -0.0799   -7.6170 C.2       10 UNK         0.4970 
     63 O          34.1064   -0.2336   -7.7411 O.2       10 UNK        -0.4914 
     64 N          31.9618   -0.9520   -8.0303 N.am      11 UNK        -0.4285 
     65 CA         32.2188   -2.3032   -8.5512 C.3       11 UNK         0.1007 
     66 C          32.9913   -2.3225   -9.9032 C.2       11 UNK         0.5703 
     67 N          32.7244   -1.3865  -10.8054 N.am      11 UNK        -0.7361 
     68 O          33.8216   -3.1944  -10.1516 O.2       11 UNK        -0.4986 
     69 C69        32.8185   -3.2497   -7.4678 C.3       12 UNK        -0.0947 
     70 S70        31.7837   -3.3156   -5.9630 S.3       12 UNK        -0.2240 
     71 C71        32.8097   -2.4094   -4.7543 C.3       12 UNK         0.0194 
     72 H72        29.6424   -6.2250   -4.1721 H         1 UNK         0.0906 
     73 H73        29.4687   -7.9401   -3.7922 H         1 UNK         0.0906 
     74 H74        28.7353   -7.2793   -5.2563 H         1 UNK         0.0906 
     75 H75        28.2951   -4.9327   -2.9410 H         1 UNK         0.3140 
     76 H76        25.8921   -5.9730   -1.6369 H         1 UNK         0.1085 
     77 H77        25.8322   -3.7116   -0.5604 H         1 UNK         0.0836 
     78 H78        27.3282   -4.5350   -0.2893 H         1 UNK         0.0836 
     79 H79        29.5488   -3.9984   -1.2573 H         1 UNK         0.0731 
     80 H80        29.3488   -2.7513   -0.0516 H         1 UNK         0.0731 
     81 H81        30.8709   -3.6236   -3.2455 H         1 UNK         0.1312 
     82 H82        32.9895    0.0869   -3.6510 H         1 UNK         0.1406 
     83 H83        30.0240   -0.3747   -0.5878 H         1 UNK         0.1631 
     84 H84        32.9075    1.4792   -1.3301 H         1 UNK         0.0717 
     85 H85        31.3251    1.5974   -0.6097 H         1 UNK         0.0717 
     86 H86        29.2694    1.7061   -2.3090 H         1 UNK         0.0934 
     87 H87        29.0884    3.3666   -2.7579 H         1 UNK         0.0934 
     88 H88        30.3451    1.8001   -4.9395 H         1 UNK         0.0739 
     89 H89        28.1896    0.4256   -3.7388 H         1 UNK         0.3093 
     90 H90        26.8763   -1.0747   -6.6060 H         1 UNK         0.0818 
     91 H91        28.9735   -2.4631   -6.3827 H         1 UNK         0.0819 
     92 H92        28.6965   -2.5658   -4.6514 H         1 UNK         0.0819 
     93 H93        27.5457   -3.2744   -5.7859 H         1 UNK         0.0819 
     94 H94        26.3609   -1.8938   -4.0251 H         1 UNK         0.3041 
     95 H95        25.2359   -0.0269   -2.2292 H         1 UNK         0.0784 
     96 H96        22.8312    0.6919   -2.2685 H         1 UNK         0.0793 
     97 H97        23.8795    1.8399   -3.0831 H         1 UNK         0.0793 
     98 H98        22.8826    0.7484   -4.0306 H         1 UNK         0.0793 
     99 H99        24.3925   -2.0567   -2.1359 H         1 UNK         0.3024 
    100 H100       22.1681   -3.6280   -2.7465 H         1 UNK         0.1171 
    101 H101       22.2796   -5.5844   -4.3169 H         1 UNK         0.0786 
    102 H102       21.6358   -4.1470   -5.0916 H         1 UNK         0.0786 
    103 H103       23.2897   -4.6420   -5.4126 H         1 UNK         0.0786 
    104 H104       23.8785   -4.6516   -1.7620 H         1 UNK         0.2977 
    105 H105       26.9111    2.3766   -5.1469 H         1 UNK         0.3127 
    106 H106       27.3931    4.8278   -6.8067 H         1 UNK         0.0770 
    107 H107       24.8525    3.8696   -5.3773 H         1 UNK         0.0814 
    108 H108       24.9682    5.2716   -6.4339 H         1 UNK         0.0814 
    109 H109       25.8496    5.2462   -4.9152 H         1 UNK         0.0814 
    110 H110       25.4713    1.7891   -6.5482 H         1 UNK         0.2983 
    111 H111       24.2663    2.0052   -9.0745 H         1 UNK         0.0947 
    112 H112       23.4772   -0.3106   -8.6062 H         1 UNK         0.0806 
    113 H113       23.3394    0.6945   -7.1733 H         1 UNK         0.0806 
    114 H114       24.6491   -0.4731   -7.3080 H         1 UNK         0.0806 
    115 H115       27.3792    0.5575   -8.2613 H         1 UNK         0.3000 
    116 H116       27.7609   -0.2359  -11.1235 H         1 UNK         0.0850 
    117 H117       29.2151   -2.0548  -10.3081 H         1 UNK         0.0810 
    118 H118       27.6156   -2.2420   -9.6118 H         1 UNK         0.0810 
    119 H119       28.9298   -1.5934   -8.6356 H         1 UNK         0.0810 
    120 H120       28.2953    2.2704   -9.3295 H         1 UNK         0.3040 
    121 H121       29.8257    3.8228   -8.9192 H         1 UNK         0.0766 
    122 H122       31.0090    2.8852  -11.5884 H         1 UNK         0.0812 
    123 H123       31.2422    4.4649  -10.8525 H         1 UNK         0.0812 
    124 H124       29.6459    3.9892  -11.4064 H         1 UNK         0.0812 
    125 H125       30.3568    1.6239   -7.4306 H         1 UNK         0.3205 
    126 H126       31.8127    0.7135   -6.0214 H         1 UNK         0.0754 
    127 H127       34.0598    1.5759   -5.6195 H         1 UNK         0.0769 
    128 H128       32.9483    2.9265   -5.7744 H         1 UNK         0.0769 
    129 H129       34.0364    2.5141   -7.1011 H         1 UNK         0.0769 
    130 H130       30.9896   -0.7103   -7.9058 H         1 UNK         0.2981 
    131 H131       31.2375   -2.7065   -8.8012 H         1 UNK         0.0541 
    132 H132       31.9917   -0.6996  -10.6392 H         1 UNK         0.3459 
    133 H133       33.2165   -1.3919  -11.6838 H         1 UNK         0.3459 
    134 H134       33.8360   -2.9527   -7.2094 H         1 UNK         0.0612 
    135 H135       32.8906   -4.2673   -7.8550 H         1 UNK         0.0612 
    136 H136       33.3518   -1.6136   -5.2639 H         1 UNK         0.0624 
    137 H137       33.5642   -3.0881   -4.3554 H         1 UNK         0.0624 
@<TRIPOS>BOND
     1    1    2 1    
     2    1   72 1    
     3    1   73 1    
     4    1   74 1    
     5    2    3 2    
     6    2    4 am   BACKBONE|DICT|INTERRES
     7    4    5 1    
     8    4   75 1    
     9    5    6 1    
    10    5   35 1    
    11    5   76 1    
    12    6    7 1    
    13    6   77 1    
    14    6   78 1    
    15    7    8 1    
    16    8    9 1    
    17    8   79 1    
    18    8   80 1    
    19    9   10 ar   
    20    9   14 ar   
    21   10   11 ar   
    22   10   81 1    
    23   11   12 ar   
    24   11   71 1    
    25   12   13 ar   
    26   12   82 1    
    27   13   14 ar   
    28   13   15 1    
    29   14   83 1    
    30   15   16 1    
    31   15   84 1    
    32   15   85 1    
    33   16   17 1    
    34   17   18 1    
    35   17   86 1    
    36   17   87 1    
    37   18   19 1    
    38   18   37 1    
    39   18   88 1    
    40   19   20 am   BACKBONE|DICT|INTERRES
    41   19   89 1    
    42   20   21 2    
    43   20   22 1    
    44   22   23 1    
    45   22   24 1    
    46   22   90 1    
    47   23   91 1    
    48   23   92 1    
    49   23   93 1    
    50   24   25 am   BACKBONE|DICT|INTERRES
    51   24   94 1    
    52   25   26 2    
    53   25   27 1    
    54   27   28 1    
    55   27   29 1    
    56   27   95 1    
    57   28   96 1    
    58   28   97 1    
    59   28   98 1    
    60   29   30 am   BACKBONE|DICT|INTERRES
    61   29   99 1    
    62   30   31 2    
    63   30   32 1    
    64   32   33 1    
    65   32   34 1    
    66   32  100 1    
    67   33  101 1    
    68   33  102 1    
    69   33  103 1    
    70   34   35 am   BACKBONE|DICT|INTERRES
    71   34  104 1    
    72   35   36 2    
    73   37   38 2    
    74   37   39 am   BACKBONE|DICT|INTERRES
    75   39   40 1    
    76   39  105 1    
    77   40   41 1    
    78   40   42 1    
    79   40  106 1    
    80   41  107 1    
    81   41  108 1    
    82   41  109 1    
    83   42   43 2    
    84   42   44 am   BACKBONE|DICT|INTERRES
    85   44   45 1    
    86   44  110 1    
    87   45   46 1    
    88   45   47 1    
    89   45  111 1    
    90   46  112 1    
    91   46  113 1    
    92   46  114 1    
    93   47   48 2    
    94   47   49 am   BACKBONE|DICT|INTERRES
    95   49   50 1    
    96   49  115 1    
    97   50   51 1    
    98   50   52 1    
    99   50  116 1    
   100   51  117 1    
   101   51  118 1    
   102   51  119 1    
   103   52   53 2    
   104   52   54 am   BACKBONE|DICT|INTERRES
   105   54   55 1    
   106   54  120 1    
   107   55   56 1    
   108   55   57 1    
   109   55  121 1    
   110   56  122 1    
   111   56  123 1    
   112   56  124 1    
   113   57   58 2    
   114   57   59 am   BACKBONE|DICT|INTERRES
   115   59   60 1    
   116   59  125 1    
   117   60   61 1    
   118   60   62 1    
   119   60  126 1    
   120   61  127 1    
   121   61  128 1    
   122   61  129 1    
   123   62   63 2    
   124   62   64 am   BACKBONE|DICT|INTERRES
   125   64   65 1    
   126   64  130 1    
   127   65   66 1    
   128   65   69 1    
   129   65  131 1    
   130   66   67 am   BACKBONE|DICT|INTERRES
   131   66   68 2    
   132   67  132 1    
   133   67  133 1    
   134   69   70 1    
   135   69  134 1    
   136   69  135 1    
   137   70   71 1    
   138   71  136 1    
   139   71  137 1    
@<TRIPOS>SUBSTRUCTURE
     1 UNK         1 GROUP             0       ****    0 ROOT    
