@<TRIPOS>MOLECULE
3R137
137   139    1
SMALL
USER_CHARGES


@<TRIPOS>ATOM
      1 CA         26.4764   -0.7706    4.6163 C.3       0 UNK        -0.2020 
      2 C          27.3786   -0.9447    3.4039 C.2       0 UNK         0.4855 
      3 O          28.2833   -0.1369    3.1936 O.2       0 UNK        -0.5197 
      4 N          27.1458   -1.9963    2.6090 N.am      1 UNK        -0.4892 
      5 CA         27.8634   -2.2703    1.3602 C.3       1 UNK         0.0835 
      6 C6         27.6977   -3.7532    0.9402 C.3       12 UNK        -0.0855 
      7 S7         29.0624   -4.3328   -0.1213 S.3       12 UNK        -0.2931 
      8 C8         28.2468   -4.3375   -1.7532 C.3       12 UNK         0.0378 
      9 C9         29.2017   -4.4650   -2.9380 C.ar      12 UNK        -0.0802 
     10 C10        30.4918   -3.9149   -2.9188 C.ar      12 UNK        -0.0944 
     11 C11        31.3301   -4.0173   -4.0337 C.ar      12 UNK        -0.0787 
     12 C12        30.8656   -4.6675   -5.1794 C.ar      12 UNK        -0.0862 
     13 C13        29.5688   -5.1790   -5.2296 C.ar      12 UNK        -0.0733 
     14 C14        28.7485   -5.0931   -4.1022 C.ar      12 UNK        -0.0832 
     15 C15        29.0358   -5.7532   -6.5319 C.3       12 UNK         0.0240 
     16 S16        27.8152   -4.6423   -7.3074 S.3       12 UNK        -0.2522 
     17 C17        28.6173   -3.0010   -7.1751 C.3       12 UNK        -0.0967 
     18 CA         27.7790   -1.8901   -7.8457 C.3       5 UNK         0.0660 
     19 N          26.4069   -1.8580   -7.3351 N.am      5 UNK        -0.4015 
     20 C          25.3966   -1.1652   -7.8749 C.2       4 UNK         0.4946 
     21 O          25.5117   -0.4816   -8.8901 O.2       4 UNK        -0.5353 
     22 CA         24.0363   -1.2209   -7.1562 C.3       4 UNK         0.0277 
     23 CB         23.0933   -2.2007   -7.8717 C.3       4 UNK        -0.1981 
     24 N          24.1474   -1.5955   -5.7431 N.am      4 UNK        -0.4209 
     25 C          24.7064   -0.8301   -4.7955 C.2       3 UNK         0.4942 
     26 O          25.0890    0.3240   -5.0031 O.2       3 UNK        -0.5208 
     27 CA         24.8693   -1.4698   -3.3983 C.3       3 UNK         0.0250 
     28 CB         25.0618   -3.0033   -3.4485 C.3       3 UNK        -0.1990 
     29 N          25.9452   -0.8708   -2.5997 N.am      3 UNK        -0.4232 
     30 C          27.2360   -0.7325   -2.9321 C.2       2 UNK         0.4993 
     31 O          27.7140   -1.0855   -4.0115 O.2       2 UNK        -0.5286 
     32 CA         28.1588   -0.1193   -1.8620 C.3       2 UNK         0.0209 
     33 CB         27.7392    1.3154   -1.4753 C.3       2 UNK        -0.1931 
     34 N          28.3212   -0.9694   -0.6723 N.am      2 UNK        -0.4546 
     35 C          27.4021   -1.3045    0.2464 C.2       1 UNK         0.5154 
     36 O          26.2312   -0.9134    0.2266 O.2       1 UNK        -0.5181 
     37 C          28.4664   -0.5147   -7.7220 C.2       5 UNK         0.5014 
     38 O          29.2393   -0.1427   -8.6066 O.2       5 UNK        -0.5248 
     39 N          28.1549    0.2413   -6.6589 N.am      6 UNK        -0.4434 
     40 CA         28.5705    1.6359   -6.5069 C.3       6 UNK         0.0363 
     41 CB         28.3838    2.0899   -5.0559 C.3       6 UNK        -0.1936 
     42 C          27.8457    2.5822   -7.4747 C.2       6 UNK         0.5081 
     43 O          28.4834    3.4871   -8.0102 O.2       6 UNK        -0.5248 
     44 N          26.5507    2.3406   -7.7282 N.am      7 UNK        -0.4718 
     45 CA         25.7576    3.0825   -8.7185 C.3       7 UNK         0.0273 
     46 CB         24.2670    2.7406   -8.5645 C.3       7 UNK        -0.1935 
     47 C          26.2393    2.8372  -10.1611 C.2       7 UNK         0.5018 
     48 O          26.2564    3.7699  -10.9642 O.2       7 UNK        -0.5186 
     49 N          26.6781    1.6022  -10.4405 N.am      8 UNK        -0.4240 
     50 CA         27.3562    1.1914  -11.6733 C.3       8 UNK         0.0235 
     51 CB         27.2930   -0.3417  -11.7816 C.3       8 UNK        -0.2000 
     52 C          28.8180    1.6776  -11.7760 C.2       8 UNK         0.4941 
     53 O          29.4386    1.4639  -12.8181 O.2       8 UNK        -0.5273 
     54 N          29.3448    2.3025  -10.7110 N.am      9 UNK        -0.4262 
     55 CA         30.6981    2.8492  -10.5623 C.3       9 UNK         0.0264 
     56 CB         30.9596    3.9796  -11.5811 C.3       9 UNK        -0.1955 
     57 C          31.8138    1.7856  -10.5457 C.2       9 UNK         0.5031 
     58 O          32.9636    2.1140  -10.8436 O.2       9 UNK        -0.5390 
     59 N          31.4822    0.5458  -10.1590 N.am      10 UNK        -0.4204 
     60 CA         32.4501   -0.5306   -9.9331 C.3       10 UNK         0.0237 
     61 CB         31.7607   -1.8949  -10.1007 C.3       10 UNK        -0.1985 
     62 C          33.1019   -0.4127   -8.5456 C.2       10 UNK         0.4970 
     63 O          34.3048   -0.6459   -8.4243 O.2       10 UNK        -0.4914 
     64 N          32.2998   -0.0304   -7.5437 N.am      11 UNK        -0.4285 
     65 CA         32.7080    0.2028   -6.1470 C.3       11 UNK         0.1007 
     66 C          32.3204    1.6278   -5.6555 C.2       11 UNK         0.5703 
     67 N          32.1727    2.6047   -6.5434 N.am      11 UNK        -0.7361 
     68 O          32.1632    1.8650   -4.4608 O.2       11 UNK        -0.4986 
     69 C69        32.2150   -0.9356   -5.2080 C.3       12 UNK        -0.0947 
     70 S70        33.1565   -2.4713   -5.4836 S.3       12 UNK        -0.2240 
     71 C71        32.7404   -3.4398   -3.9947 C.3       12 UNK         0.0194 
     72 H72        25.7080   -1.5424    4.6679 H         1 UNK         0.0906 
     73 H73        27.0658   -0.8161    5.5328 H         1 UNK         0.0906 
     74 H74        25.9803    0.1995    4.5773 H         1 UNK         0.0906 
     75 H75        26.3640   -2.6034    2.8089 H         1 UNK         0.3140 
     76 H76        28.9219   -2.0826    1.5553 H         1 UNK         0.1085 
     77 H77        27.7121   -4.3910    1.8256 H         1 UNK         0.0836 
     78 H78        26.7314   -3.9349    0.4652 H         1 UNK         0.0836 
     79 H79        27.6762   -3.4198   -1.8802 H         1 UNK         0.0731 
     80 H80        27.5227   -5.1535   -1.7656 H         1 UNK         0.0731 
     81 H81        30.8487   -3.4034   -2.0364 H         1 UNK         0.1312 
     82 H82        31.5031   -4.7396   -6.0498 H         1 UNK         0.1406 
     83 H83        27.7407   -5.4830   -4.1496 H         1 UNK         0.1631 
     84 H84        28.5713   -6.7221   -6.3441 H         1 UNK         0.0717 
     85 H85        29.8479   -5.9326   -7.2381 H         1 UNK         0.0717 
     86 H86        28.7678   -2.7640   -6.1193 H         1 UNK         0.0934 
     87 H87        29.6106   -3.0614   -7.6234 H         1 UNK         0.0934 
     88 H88        27.7191   -2.1189   -8.9116 H         1 UNK         0.0739 
     89 H89        26.2322   -2.4047   -6.5057 H         1 UNK         0.3093 
     90 H90        23.5976   -0.2223   -7.2089 H         1 UNK         0.0818 
     91 H91        22.1004   -2.1975   -7.4217 H         1 UNK         0.0819 
     92 H92        22.9717   -1.9271   -8.9209 H         1 UNK         0.0819 
     93 H93        23.4735   -3.2227   -7.8443 H         1 UNK         0.0819 
     94 H94        23.8318   -2.5212   -5.4920 H         1 UNK         0.3041 
     95 H95        23.9433   -1.2636   -2.8608 H         1 UNK         0.0784 
     96 H96        24.1911   -3.5102   -3.8648 H         1 UNK         0.0793 
     97 H97        25.9305   -3.2840   -4.0452 H         1 UNK         0.0793 
     98 H98        25.2052   -3.4103   -2.4476 H         1 UNK         0.0793 
     99 H99        25.6941   -0.5924   -1.6559 H         1 UNK         0.3024 
    100 H100       29.1481   -0.0531   -2.3186 H         1 UNK         0.1171 
    101 H101       28.4640    1.7658   -0.7975 H         1 UNK         0.0786 
    102 H102       27.6762    1.9600   -2.3503 H         1 UNK         0.0786 
    103 H103       26.7657    1.3499   -0.9870 H         1 UNK         0.0786 
    104 H104       29.2374   -1.3855   -0.5772 H         1 UNK         0.2977 
    105 H105       27.5835   -0.1529   -5.9174 H         1 UNK         0.3127 
    106 H106       29.6321    1.6951   -6.7419 H         1 UNK         0.0770 
    107 H107       27.3456    1.9933   -4.7364 H         1 UNK         0.0814 
    108 H108       28.6723    3.1345   -4.9313 H         1 UNK         0.0814 
    109 H109       29.0076    1.5021   -4.3832 H         1 UNK         0.0814 
    110 H110       26.0975    1.5722   -7.2528 H         1 UNK         0.2983 
    111 H111       25.8816    4.1476   -8.5101 H         1 UNK         0.0947 
    112 H112       23.6599    3.3535   -9.2319 H         1 UNK         0.0806 
    113 H113       23.9186    2.9260   -7.5484 H         1 UNK         0.0806 
    114 H114       24.0587    1.6991   -8.8072 H         1 UNK         0.0806 
    115 H115       26.5170    0.8744   -9.7476 H         1 UNK         0.3000 
    116 H116       26.8133    1.6184  -12.5189 H         1 UNK         0.0850 
    117 H117       27.7133   -0.6864  -12.7273 H         1 UNK         0.0810 
    118 H118       26.2653   -0.7024  -11.7333 H         1 UNK         0.0810 
    119 H119       27.8550   -0.8230  -10.9811 H         1 UNK         0.0810 
    120 H120       28.7505    2.4283   -9.9005 H         1 UNK         0.3040 
    121 H121       30.7193    3.3033   -9.5709 H         1 UNK         0.0766 
    122 H122       31.0372    3.5984  -12.5996 H         1 UNK         0.0812 
    123 H123       31.8920    4.4997  -11.3589 H         1 UNK         0.0812 
    124 H124       30.1635    4.7238  -11.5599 H         1 UNK         0.0812 
    125 H125       30.5238    0.3624   -9.8677 H         1 UNK         0.3205 
    126 H126       33.2405   -0.4611  -10.6836 H         1 UNK         0.0754 
    127 H127       32.4752   -2.7093   -9.9743 H         1 UNK         0.0769 
    128 H128       31.3236   -1.9972  -11.0941 H         1 UNK         0.0769 
    129 H129       30.9667   -2.0438   -9.3698 H         1 UNK         0.0769 
    130 H130       31.3233    0.1340   -7.7485 H         1 UNK         0.2981 
    131 H131       33.7979    0.2155   -6.0935 H         1 UNK         0.0541 
    132 H132       31.9334    3.5280   -6.2187 H         1 UNK         0.3459 
    133 H133       32.3656    2.4455   -7.5178 H         1 UNK         0.3459 
    134 H134       31.1501   -1.1296   -5.3504 H         1 UNK         0.0612 
    135 H135       32.3429   -0.6648   -4.1589 H         1 UNK         0.0612 
    136 H136       33.4473   -4.2660   -3.9112 H         1 UNK         0.0624 
    137 H137       32.8868   -2.8178   -3.1104 H         1 UNK         0.0624 
@<TRIPOS>BOND
     1    1    2 1    
     2    1   72 1    
     3    1   73 1    
     4    1   74 1    
     5    2    3 2    
     6    2    4 am   BACKBONE|DICT|INTERRES
     7    4    5 1    
     8    4   75 1    
     9    5    6 1    
    10    5   35 1    
    11    5   76 1    
    12    6    7 1    
    13    6   77 1    
    14    6   78 1    
    15    7    8 1    
    16    8    9 1    
    17    8   79 1    
    18    8   80 1    
    19    9   10 ar   
    20    9   14 ar   
    21   10   11 ar   
    22   10   81 1    
    23   11   12 ar   
    24   11   71 1    
    25   12   13 ar   
    26   12   82 1    
    27   13   14 ar   
    28   13   15 1    
    29   14   83 1    
    30   15   16 1    
    31   15   84 1    
    32   15   85 1    
    33   16   17 1    
    34   17   18 1    
    35   17   86 1    
    36   17   87 1    
    37   18   19 1    
    38   18   37 1    
    39   18   88 1    
    40   19   20 am   BACKBONE|DICT|INTERRES
    41   19   89 1    
    42   20   21 2    
    43   20   22 1    
    44   22   23 1    
    45   22   24 1    
    46   22   90 1    
    47   23   91 1    
    48   23   92 1    
    49   23   93 1    
    50   24   25 am   BACKBONE|DICT|INTERRES
    51   24   94 1    
    52   25   26 2    
    53   25   27 1    
    54   27   28 1    
    55   27   29 1    
    56   27   95 1    
    57   28   96 1    
    58   28   97 1    
    59   28   98 1    
    60   29   30 am   BACKBONE|DICT|INTERRES
    61   29   99 1    
    62   30   31 2    
    63   30   32 1    
    64   32   33 1    
    65   32   34 1    
    66   32  100 1    
    67   33  101 1    
    68   33  102 1    
    69   33  103 1    
    70   34   35 am   BACKBONE|DICT|INTERRES
    71   34  104 1    
    72   35   36 2    
    73   37   38 2    
    74   37   39 am   BACKBONE|DICT|INTERRES
    75   39   40 1    
    76   39  105 1    
    77   40   41 1    
    78   40   42 1    
    79   40  106 1    
    80   41  107 1    
    81   41  108 1    
    82   41  109 1    
    83   42   43 2    
    84   42   44 am   BACKBONE|DICT|INTERRES
    85   44   45 1    
    86   44  110 1    
    87   45   46 1    
    88   45   47 1    
    89   45  111 1    
    90   46  112 1    
    91   46  113 1    
    92   46  114 1    
    93   47   48 2    
    94   47   49 am   BACKBONE|DICT|INTERRES
    95   49   50 1    
    96   49  115 1    
    97   50   51 1    
    98   50   52 1    
    99   50  116 1    
   100   51  117 1    
   101   51  118 1    
   102   51  119 1    
   103   52   53 2    
   104   52   54 am   BACKBONE|DICT|INTERRES
   105   54   55 1    
   106   54  120 1    
   107   55   56 1    
   108   55   57 1    
   109   55  121 1    
   110   56  122 1    
   111   56  123 1    
   112   56  124 1    
   113   57   58 2    
   114   57   59 am   BACKBONE|DICT|INTERRES
   115   59   60 1    
   116   59  125 1    
   117   60   61 1    
   118   60   62 1    
   119   60  126 1    
   120   61  127 1    
   121   61  128 1    
   122   61  129 1    
   123   62   63 2    
   124   62   64 am   BACKBONE|DICT|INTERRES
   125   64   65 1    
   126   64  130 1    
   127   65   66 1    
   128   65   69 1    
   129   65  131 1    
   130   66   67 am   BACKBONE|DICT|INTERRES
   131   66   68 2    
   132   67  132 1    
   133   67  133 1    
   134   69   70 1    
   135   69  134 1    
   136   69  135 1    
   137   70   71 1    
   138   71  136 1    
   139   71  137 1    
@<TRIPOS>SUBSTRUCTURE
     1 UNK         1 GROUP             0       ****    0 ROOT    
