@<TRIPOS>MOLECULE
3R137
137   139    1
SMALL
USER_CHARGES


@<TRIPOS>ATOM
      1 CA         21.6224   -4.1996   -3.0775 C.3       0 UNK        -0.2020 
      2 C          23.1381   -4.0789   -3.0738 C.2       0 UNK         0.4855 
      3 O          23.7001   -3.4392   -3.9629 O.2       0 UNK        -0.5197 
      4 N          23.8037   -4.6720   -2.0711 N.am      1 UNK        -0.4892 
      5 CA         25.2645   -4.6852   -1.8980 C.3       1 UNK         0.0835 
      6 C6         25.9637   -5.5303   -2.9968 C.3       12 UNK        -0.0855 
      7 S7         27.5759   -6.2050   -2.4745 S.3       12 UNK        -0.2931 
      8 C8         28.5977   -5.9706   -3.9759 C.3       12 UNK         0.0378 
      9 C9         29.5761   -4.7914   -3.9544 C.ar      12 UNK        -0.0802 
     10 C10        30.1910   -4.4172   -5.1542 C.ar      12 UNK        -0.0944 
     11 C11        31.1696   -3.4179   -5.1932 C.ar      12 UNK        -0.0787 
     12 C12        31.5344   -2.7856   -3.9966 C.ar      12 UNK        -0.0862 
     13 C13        30.9098   -3.1207   -2.7909 C.ar      12 UNK        -0.0733 
     14 C14        29.9344   -4.1223   -2.7774 C.ar      12 UNK        -0.0832 
     15 C15        31.3060   -2.4268   -1.4905 C.3       12 UNK         0.0240 
     16 S16        31.0311   -0.6227   -1.5188 S.3       12 UNK        -0.2522 
     17 C17        29.2771   -0.5119   -2.0065 C.3       12 UNK        -0.0967 
     18 CA         29.1344   -0.1707   -3.5124 C.3       5 UNK         0.0660 
     19 N          28.0045   -0.8639   -4.1362 N.am      5 UNK        -0.4015 
     20 C          27.7837   -0.9002   -5.4579 C.2       4 UNK         0.4946 
     21 O          28.5403   -0.4022   -6.2861 O.2       4 UNK        -0.5353 
     22 CA         26.4784   -1.5561   -5.9351 C.3       4 UNK         0.0277 
     23 CB         26.6610   -3.0745   -6.0622 C.3       4 UNK        -0.1981 
     24 N          25.3480   -1.2430   -5.0556 N.am      4 UNK        -0.4209 
     25 C          24.8502   -0.0055   -4.9055 C.2       3 UNK         0.4942 
     26 O          25.2351    0.9689   -5.5509 O.2       3 UNK        -0.5208 
     27 CA         23.8008    0.2017   -3.8027 C.3       3 UNK         0.0250 
     28 CB         22.4000   -0.2235   -4.2720 C.3       3 UNK        -0.1990 
     29 N          24.1623   -0.4972   -2.5672 N.am      3 UNK        -0.4232 
     30 C          25.2049   -0.1602   -1.7928 C.2       2 UNK         0.4993 
     31 O          25.9337    0.8062   -2.0123 O.2       2 UNK        -0.5286 
     32 CA         25.5131   -1.0692   -0.5907 C.3       2 UNK         0.0209 
     33 CB         24.7573   -0.5862    0.6572 C.3       2 UNK        -0.1931 
     34 N          25.2054   -2.4819   -0.8334 N.am      2 UNK        -0.4546 
     35 C          25.8189   -3.2491   -1.7471 C.2       1 UNK         0.5154 
     36 O          26.7190   -2.8339   -2.4783 O.2       1 UNK        -0.5181 
     37 C          29.1267    1.3524   -3.7698 C.2       5 UNK         0.5014 
     38 O          30.1993    1.9485   -3.8817 O.2       5 UNK        -0.5248 
     39 N          27.9309    1.9502   -3.8767 N.am      6 UNK        -0.4434 
     40 CA         27.7356    3.3414   -4.2769 C.3       6 UNK         0.0363 
     41 CB         26.3422    3.8241   -3.8420 C.3       6 UNK        -0.1936 
     42 C          27.9532    3.5528   -5.7855 C.2       6 UNK         0.5081 
     43 O          28.6698    4.4855   -6.1534 O.2       6 UNK        -0.5248 
     44 N          27.3538    2.7043   -6.6335 N.am      7 UNK        -0.4718 
     45 CA         27.4355    2.8187   -8.0905 C.3       7 UNK         0.0273 
     46 CB         26.3565    3.7969   -8.5945 C.3       7 UNK        -0.1935 
     47 C          27.3096    1.4457   -8.7691 C.2       7 UNK         0.5018 
     48 O          26.2019    0.9122   -8.8561 O.2       7 UNK        -0.5186 
     49 N          28.4302    0.9314   -9.2897 N.am      8 UNK        -0.4240 
     50 CA         28.5206   -0.2565  -10.1384 C.3       8 UNK         0.0235 
     51 CB         28.2956   -1.5581   -9.3426 C.3       8 UNK        -0.2000 
     52 C          29.8840   -0.2422  -10.8375 C.2       8 UNK         0.4941 
     53 O          30.8381   -0.8396  -10.3328 O.2       8 UNK        -0.5273 
     54 N          29.9527    0.4617  -11.9770 N.am      9 UNK        -0.4262 
     55 CA         31.1220    0.6226  -12.8504 C.3       9 UNK         0.0264 
     56 CB         31.4628   -0.7078  -13.5612 C.3       9 UNK        -0.1955 
     57 C          32.3164    1.2528  -12.1096 C.2       9 UNK         0.5031 
     58 O          32.3531    2.4755  -11.9652 O.2       9 UNK        -0.5390 
     59 N          33.2616    0.4175  -11.6580 N.am      10 UNK        -0.4204 
     60 CA         34.4149    0.8180  -10.8507 C.3       10 UNK         0.0237 
     61 CB         35.4483   -0.3204  -10.8407 C.3       10 UNK        -0.1985 
     62 C          34.0344    1.2128   -9.4124 C.2       10 UNK         0.4970 
     63 O          34.7057    2.0686   -8.8337 O.2       10 UNK        -0.4914 
     64 N          32.9826    0.5920   -8.8639 N.am      11 UNK        -0.4285 
     65 CA         32.4114    0.9312   -7.5542 C.3       11 UNK         0.1007 
     66 C          31.4151    2.1146   -7.6741 C.2       11 UNK         0.5703 
     67 N          31.1854    2.8477   -6.5963 N.am      11 UNK        -0.7361 
     68 O          30.8208    2.3571   -8.7233 O.2       11 UNK        -0.4986 
     69 C69        31.7481   -0.2986   -6.8838 C.3       12 UNK        -0.0947 
     70 S70        32.9333   -1.6535   -6.5929 S.3       12 UNK        -0.2240 
     71 C71        31.8302   -3.1100   -6.5417 C.3       12 UNK         0.0194 
     72 H72        21.2574   -4.7984   -2.2433 H         1 UNK         0.0906 
     73 H73        21.1670   -3.2119   -3.0123 H         1 UNK         0.0906 
     74 H74        21.2881   -4.6677   -4.0028 H         1 UNK         0.0906 
     75 H75        23.2810   -5.1741   -1.3655 H         1 UNK         0.3140 
     76 H76        25.4436   -5.1759   -0.9396 H         1 UNK         0.1085 
     77 H77        26.0491   -4.9682   -3.9240 H         1 UNK         0.0836 
     78 H78        25.3423   -6.3922   -3.2448 H         1 UNK         0.0836 
     79 H79        27.9523   -5.9005   -4.8526 H         1 UNK         0.0731 
     80 H80        29.1854   -6.8791   -4.1137 H         1 UNK         0.0731 
     81 H81        29.9261   -4.9323   -6.0678 H         1 UNK         0.1312 
     82 H82        32.2988   -2.0222   -3.9869 H         1 UNK         0.1406 
     83 H83        29.4737   -4.3911   -1.8379 H         1 UNK         0.1631 
     84 H84        32.3620   -2.6176   -1.2953 H         1 UNK         0.0717 
     85 H85        30.7591   -2.8463   -0.6446 H         1 UNK         0.0717 
     86 H86        28.8059   -1.4674   -1.7762 H         1 UNK         0.0934 
     87 H87        28.7690    0.2198   -1.3751 H         1 UNK         0.0934 
     88 H88        30.0119   -0.5515   -4.0349 H         1 UNK         0.0739 
     89 H89        27.3867   -1.3894   -3.5227 H         1 UNK         0.3093 
     90 H90        26.2382   -1.1541   -6.9208 H         1 UNK         0.0818 
     91 H91        27.0882   -3.4934   -5.1529 H         1 UNK         0.0819 
     92 H92        25.7190   -3.5827   -6.2686 H         1 UNK         0.0819 
     93 H93        27.3498   -3.3119   -6.8736 H         1 UNK         0.0819 
     94 H94        24.9475   -2.0073   -4.5172 H         1 UNK         0.3041 
     95 H95        23.7657    1.2705   -3.5793 H         1 UNK         0.0784 
     96 H96        22.0994    0.3476   -5.1514 H         1 UNK         0.0793 
     97 H97        22.3595   -1.2775   -4.5446 H         1 UNK         0.0793 
     98 H98        21.6511   -0.0460   -3.5001 H         1 UNK         0.0793 
     99 H99        23.6398   -1.3300   -2.3397 H         1 UNK         0.3024 
    100 H100       26.5844   -0.9910   -0.3932 H         1 UNK         0.1171 
    101 H101       25.0365   -1.1636    1.5389 H         1 UNK         0.0786 
    102 H102       24.9869    0.4588    0.8712 H         1 UNK         0.0786 
    103 H103       23.6765   -0.6632    0.5322 H         1 UNK         0.0786 
    104 H104       24.4582   -2.8876   -0.2881 H         1 UNK         0.2977 
    105 H105       27.0966    1.4042   -3.6934 H         1 UNK         0.3127 
    106 H106       28.4728    3.9502   -3.7487 H         1 UNK         0.0770 
    107 H107       25.5444    3.2695   -4.3351 H         1 UNK         0.0814 
    108 H108       26.2036    4.8780   -4.0861 H         1 UNK         0.0814 
    109 H109       26.2050    3.7183   -2.7656 H         1 UNK         0.0814 
    110 H110       26.7687    1.9524   -6.2737 H         1 UNK         0.2983 
    111 H111       28.4060    3.2359   -8.3642 H         1 UNK         0.0947 
    112 H112       26.3684    3.8650   -9.6830 H         1 UNK         0.0806 
    113 H113       26.5179    4.8023   -8.2055 H         1 UNK         0.0806 
    114 H114       25.3564    3.4792   -8.2966 H         1 UNK         0.0806 
    115 H115       29.3067    1.4338   -9.1500 H         1 UNK         0.3000 
    116 H116       27.7456   -0.1939  -10.9053 H         1 UNK         0.0850 
    117 H117       28.4264   -2.4314   -9.9825 H         1 UNK         0.0810 
    118 H118       27.2868   -1.6080   -8.9372 H         1 UNK         0.0810 
    119 H119       28.9991   -1.6560   -8.5165 H         1 UNK         0.0810 
    120 H120       29.1257    0.9623  -12.2725 H         1 UNK         0.3040 
    121 H121       30.8341    1.3369  -13.6236 H         1 UNK         0.0766 
    122 H122       30.6378   -1.0295  -14.1969 H         1 UNK         0.0812 
    123 H123       31.6680   -1.5185  -12.8616 H         1 UNK         0.0812 
    124 H124       32.3360   -0.5967  -14.2057 H         1 UNK         0.0812 
    125 H125       33.1178   -0.5732  -11.7924 H         1 UNK         0.3205 
    126 H126       34.8729    1.6904  -11.3219 H         1 UNK         0.0754 
    127 H127       36.3334   -0.0379  -10.2688 H         1 UNK         0.0769 
    128 H128       35.7808   -0.5642  -11.8500 H         1 UNK         0.0769 
    129 H129       35.0454   -1.2283  -10.3897 H         1 UNK         0.0769 
    130 H130       32.4273   -0.0431   -9.4285 H         1 UNK         0.2981 
    131 H131       33.2218    1.2604   -6.9005 H         1 UNK         0.0541 
    132 H132       31.5720    2.5977   -5.6981 H         1 UNK         0.3459 
    133 H133       30.4970    3.5880   -6.6442 H         1 UNK         0.3459 
    134 H134       30.9277   -0.6634   -7.5027 H         1 UNK         0.0612 
    135 H135       31.3131   -0.0242   -5.9222 H         1 UNK         0.0612 
    136 H136       31.0621   -3.0011   -7.3090 H         1 UNK         0.0624 
    137 H137       32.4233   -3.9794   -6.8277 H         1 UNK         0.0624 
@<TRIPOS>BOND
     1    1    2 1    
     2    1   72 1    
     3    1   73 1    
     4    1   74 1    
     5    2    3 2    
     6    2    4 am   BACKBONE|DICT|INTERRES
     7    4    5 1    
     8    4   75 1    
     9    5    6 1    
    10    5   35 1    
    11    5   76 1    
    12    6    7 1    
    13    6   77 1    
    14    6   78 1    
    15    7    8 1    
    16    8    9 1    
    17    8   79 1    
    18    8   80 1    
    19    9   10 ar   
    20    9   14 ar   
    21   10   11 ar   
    22   10   81 1    
    23   11   12 ar   
    24   11   71 1    
    25   12   13 ar   
    26   12   82 1    
    27   13   14 ar   
    28   13   15 1    
    29   14   83 1    
    30   15   16 1    
    31   15   84 1    
    32   15   85 1    
    33   16   17 1    
    34   17   18 1    
    35   17   86 1    
    36   17   87 1    
    37   18   19 1    
    38   18   37 1    
    39   18   88 1    
    40   19   20 am   BACKBONE|DICT|INTERRES
    41   19   89 1    
    42   20   21 2    
    43   20   22 1    
    44   22   23 1    
    45   22   24 1    
    46   22   90 1    
    47   23   91 1    
    48   23   92 1    
    49   23   93 1    
    50   24   25 am   BACKBONE|DICT|INTERRES
    51   24   94 1    
    52   25   26 2    
    53   25   27 1    
    54   27   28 1    
    55   27   29 1    
    56   27   95 1    
    57   28   96 1    
    58   28   97 1    
    59   28   98 1    
    60   29   30 am   BACKBONE|DICT|INTERRES
    61   29   99 1    
    62   30   31 2    
    63   30   32 1    
    64   32   33 1    
    65   32   34 1    
    66   32  100 1    
    67   33  101 1    
    68   33  102 1    
    69   33  103 1    
    70   34   35 am   BACKBONE|DICT|INTERRES
    71   34  104 1    
    72   35   36 2    
    73   37   38 2    
    74   37   39 am   BACKBONE|DICT|INTERRES
    75   39   40 1    
    76   39  105 1    
    77   40   41 1    
    78   40   42 1    
    79   40  106 1    
    80   41  107 1    
    81   41  108 1    
    82   41  109 1    
    83   42   43 2    
    84   42   44 am   BACKBONE|DICT|INTERRES
    85   44   45 1    
    86   44  110 1    
    87   45   46 1    
    88   45   47 1    
    89   45  111 1    
    90   46  112 1    
    91   46  113 1    
    92   46  114 1    
    93   47   48 2    
    94   47   49 am   BACKBONE|DICT|INTERRES
    95   49   50 1    
    96   49  115 1    
    97   50   51 1    
    98   50   52 1    
    99   50  116 1    
   100   51  117 1    
   101   51  118 1    
   102   51  119 1    
   103   52   53 2    
   104   52   54 am   BACKBONE|DICT|INTERRES
   105   54   55 1    
   106   54  120 1    
   107   55   56 1    
   108   55   57 1    
   109   55  121 1    
   110   56  122 1    
   111   56  123 1    
   112   56  124 1    
   113   57   58 2    
   114   57   59 am   BACKBONE|DICT|INTERRES
   115   59   60 1    
   116   59  125 1    
   117   60   61 1    
   118   60   62 1    
   119   60  126 1    
   120   61  127 1    
   121   61  128 1    
   122   61  129 1    
   123   62   63 2    
   124   62   64 am   BACKBONE|DICT|INTERRES
   125   64   65 1    
   126   64  130 1    
   127   65   66 1    
   128   65   69 1    
   129   65  131 1    
   130   66   67 am   BACKBONE|DICT|INTERRES
   131   66   68 2    
   132   67  132 1    
   133   67  133 1    
   134   69   70 1    
   135   69  134 1    
   136   69  135 1    
   137   70   71 1    
   138   71  136 1    
   139   71  137 1    
@<TRIPOS>SUBSTRUCTURE
     1 UNK         1 GROUP             0       ****    0 ROOT    
