@<TRIPOS>MOLECULE
3R137
137   139    1
SMALL
USER_CHARGES


@<TRIPOS>ATOM
      1 CA         30.9058    0.9469   -2.9632 C.3       0 UNK        -0.2020 
      2 C          29.9108   -0.1922   -2.8161 C.2       0 UNK         0.4855 
      3 O          28.8902   -0.1960   -3.5001 O.2       0 UNK        -0.5197 
      4 N          30.1971   -1.1573   -1.9319 N.am      1 UNK        -0.4892 
      5 CA         29.3204   -2.2916   -1.6219 C.3       1 UNK         0.0835 
      6 C6         30.0366   -3.3214   -0.7106 C.3       12 UNK        -0.0855 
      7 S7         29.2637   -4.9738   -0.7894 S.3       12 UNK        -0.2931 
      8 C8         30.4517   -5.8972   -1.8187 C.3       12 UNK         0.0378 
      9 C9         30.5684   -5.3043   -3.2151 C.ar      12 UNK        -0.0802 
     10 C10        31.7166   -4.5987   -3.5909 C.ar      12 UNK        -0.0944 
     11 C11        31.8107   -4.0260   -4.8622 C.ar      12 UNK        -0.0787 
     12 C12        30.7503   -4.1679   -5.7602 C.ar      12 UNK        -0.0862 
     13 C13        29.5948   -4.8633   -5.3941 C.ar      12 UNK        -0.0733 
     14 C14        29.5159   -5.4436   -4.1250 C.ar      12 UNK        -0.0832 
     15 C15        28.4234   -4.9613   -6.3622 C.3       12 UNK         0.0240 
     16 S16        26.9481   -4.0840   -5.7481 S.3       12 UNK        -0.2522 
     17 C17        27.5488   -2.3672   -5.5920 C.3       12 UNK        -0.0967 
     18 CA         26.9696   -1.4307   -6.6744 C.3       5 UNK         0.0660 
     19 N          25.5046   -1.3433   -6.6100 N.am      5 UNK        -0.4015 
     20 C          24.7328   -0.6281   -7.4430 C.2       4 UNK         0.4946 
     21 O          25.1785    0.0417   -8.3755 O.2       4 UNK        -0.5353 
     22 CA         23.2165   -0.6116   -7.1895 C.3       4 UNK         0.0277 
     23 CB         22.5118   -1.5954   -8.1368 C.3       4 UNK        -0.1981 
     24 N          22.8139   -0.8948   -5.8084 N.am      4 UNK        -0.4209 
     25 C          23.1687   -0.1902   -4.7240 C.2       3 UNK         0.4942 
     26 O          23.9418    0.7700   -4.7543 O.2       3 UNK        -0.5208 
     27 CA         22.5647   -0.6256   -3.3723 C.3       3 UNK         0.0250 
     28 CB         21.6341   -1.8589   -3.4552 C.3       3 UNK        -0.1990 
     29 N          23.5923   -0.8369   -2.3464 N.am      3 UNK        -0.4232 
     30 C          24.6416   -1.6676   -2.4217 C.2       2 UNK         0.4993 
     31 O          24.9004   -2.3771   -3.3977 O.2       2 UNK        -0.5286 
     32 CA         25.5314   -1.7412   -1.1769 C.3       2 UNK         0.0209 
     33 CB         24.9480   -2.7147   -0.1371 C.3       2 UNK        -0.1931 
     34 N          26.8629   -2.1894   -1.5717 N.am      2 UNK        -0.4546 
     35 C          28.0008   -1.7961   -0.9913 C.2       1 UNK         0.5154 
     36 O          28.0444   -1.0634    0.0015 O.2       1 UNK        -0.5181 
     37 C          27.6614   -0.0538   -6.6046 C.2       5 UNK         0.5014 
     38 O          28.6947    0.1298   -7.2515 O.2       5 UNK        -0.5248 
     39 N          27.0577    0.9037   -5.8849 N.am      6 UNK        -0.4434 
     40 CA         27.5385    2.2810   -5.7638 C.3       6 UNK         0.0363 
     41 CB         26.7204    3.0039   -4.6829 C.3       6 UNK        -0.1936 
     42 C          27.5089    3.0696   -7.0873 C.2       6 UNK         0.5081 
     43 O          28.2396    4.0525   -7.2073 O.2       6 UNK        -0.5248 
     44 N          26.6853    2.6310   -8.0489 N.am      7 UNK        -0.4718 
     45 CA         26.6177    3.1781   -9.4028 C.3       7 UNK         0.0273 
     46 CB         25.1465    3.4279   -9.7748 C.3       7 UNK        -0.1935 
     47 C          27.2743    2.2285  -10.4155 C.2       7 UNK         0.5018 
     48 O          28.0094    2.6955  -11.2857 O.2       7 UNK        -0.5186 
     49 N          26.9854    0.9233  -10.3024 N.am      8 UNK        -0.4240 
     50 CA         27.4203   -0.1118  -11.2426 C.3       8 UNK         0.0235 
     51 CB         26.6084   -1.3959  -11.0048 C.3       8 UNK        -0.2000 
     52 C          28.9267   -0.4081  -11.1889 C.2       8 UNK         0.4941 
     53 O          29.5297   -0.6106  -12.2440 O.2       8 UNK        -0.5273 
     54 N          29.5006   -0.4382   -9.9793 N.am      9 UNK        -0.4262 
     55 CA         30.9280   -0.6664   -9.7478 C.3       9 UNK         0.0264 
     56 CB         31.1180   -1.7843   -8.7085 C.3       9 UNK        -0.1955 
     57 C          31.6132    0.6241   -9.2864 C.2       9 UNK         0.5031 
     58 O          32.6783    0.9536   -9.8095 O.2       9 UNK        -0.5390 
     59 N          30.9936    1.3211   -8.3191 N.am      10 UNK        -0.4204 
     60 CA         31.4665    2.5562   -7.6777 C.3       10 UNK         0.0237 
     61 CB         31.4247    3.7367   -8.6711 C.3       10 UNK        -0.1985 
     62 C          32.8399    2.3873   -6.9935 C.2       10 UNK         0.4970 
     63 O          33.6779    3.2887   -7.0466 O.2       10 UNK        -0.4914 
     64 N          33.0397    1.2202   -6.3695 N.am      11 UNK        -0.4285 
     65 CA         34.2779    0.7860   -5.7040 C.3       11 UNK         0.1007 
     66 C          34.6176    1.4947   -4.3572 C.2       11 UNK         0.5703 
     67 N          33.8171    2.4359   -3.8717 N.am      11 UNK        -0.7361 
     68 O          35.6426    1.1975   -3.7480 O.2       11 UNK        -0.4986 
     69 C69        34.3339   -0.7638   -5.6010 C.3       12 UNK        -0.0947 
     70 S70        32.8765   -1.4937   -4.7802 S.3       12 UNK        -0.2240 
     71 C71        33.0459   -3.2363   -5.2636 C.3       12 UNK         0.0194 
     72 H72        30.4876    1.8667   -2.5554 H         1 UNK         0.0906 
     73 H73        31.8437    0.7364   -2.4495 H         1 UNK         0.0906 
     74 H74        31.1263    1.1102   -4.0171 H         1 UNK         0.0906 
     75 H75        31.0390   -1.0875   -1.3791 H         1 UNK         0.3140 
     76 H76        29.0942   -2.7733   -2.5766 H         1 UNK         0.1085 
     77 H77        31.0840   -3.4170   -1.0000 H         1 UNK         0.0836 
     78 H78        30.0546   -2.9869    0.3288 H         1 UNK         0.0836 
     79 H79        30.1245   -6.9353   -1.8935 H         1 UNK         0.0731 
     80 H80        31.4224   -5.9183   -1.3206 H         1 UNK         0.0731 
     81 H81        32.5317   -4.4794   -2.8902 H         1 UNK         0.1312 
     82 H82        30.8184   -3.7196   -6.7399 H         1 UNK         0.1406 
     83 H83        28.6200   -5.9755   -3.8333 H         1 UNK         0.1631 
     84 H84        28.1726   -6.0117   -6.5159 H         1 UNK         0.0717 
     85 H85        28.6898   -4.5615   -7.3421 H         1 UNK         0.0717 
     86 H86        27.2791   -2.0063   -4.5987 H         1 UNK         0.0934 
     87 H87        28.6392   -2.3520   -5.6199 H         1 UNK         0.0934 
     88 H88        27.2185   -1.8533   -7.6492 H         1 UNK         0.0739 
     89 H89        25.0655   -1.8531   -5.8539 H         1 UNK         0.3093 
     90 H90        22.8693    0.3965   -7.4254 H         1 UNK         0.0818 
     91 H91        21.4273   -1.5173   -8.0578 H         1 UNK         0.0819 
     92 H92        22.7731   -1.3913   -9.1764 H         1 UNK         0.0819 
     93 H93        22.7923   -2.6286   -7.9279 H         1 UNK         0.0819 
     94 H94        22.1908   -1.6780   -5.6745 H         1 UNK         0.3041 
     95 H95        21.9614    0.2177   -3.0328 H         1 UNK         0.0784 
     96 H96        20.7932   -1.6813   -4.1270 H         1 UNK         0.0793 
     97 H97        22.1601   -2.7504   -3.8000 H         1 UNK         0.0793 
     98 H98        21.2095   -2.0906   -2.4782 H         1 UNK         0.0793 
     99 H99        23.4848   -0.2784   -1.5110 H         1 UNK         0.3024 
    100 H100       25.5955   -0.7392   -0.7455 H         1 UNK         0.1171 
    101 H101       25.5684   -2.7566    0.7584 H         1 UNK         0.0786 
    102 H102       23.9495   -2.4062    0.1753 H         1 UNK         0.0786 
    103 H103       24.8682   -3.7269   -0.5360 H         1 UNK         0.0786 
    104 H104       26.8811   -2.7493   -2.4152 H         1 UNK         0.2977 
    105 H105       26.1938    0.6819   -5.4050 H         1 UNK         0.3127 
    106 H106       28.5784    2.2378   -5.4330 H         1 UNK         0.0770 
    107 H107       25.6634    3.0578   -4.9470 H         1 UNK         0.0814 
    108 H108       27.0755    4.0255   -4.5412 H         1 UNK         0.0814 
    109 H109       26.8011    2.4963   -3.7213 H         1 UNK         0.0814 
    110 H110       26.1345    1.7982   -7.8721 H         1 UNK         0.2983 
    111 H111       27.1455    4.1331   -9.4561 H         1 UNK         0.0947 
    112 H112       25.0622    3.8291  -10.7857 H         1 UNK         0.0806 
    113 H113       24.6871    4.1506   -9.1004 H         1 UNK         0.0806 
    114 H114       24.5550    2.5121   -9.7355 H         1 UNK         0.0806 
    115 H115       26.3369    0.6256   -9.5741 H         1 UNK         0.3000 
    116 H116       27.1944    0.2443  -12.2502 H         1 UNK         0.0850 
    117 H117       26.8824   -2.1699  -11.7231 H         1 UNK         0.0810 
    118 H118       25.5390   -1.2149  -11.1154 H         1 UNK         0.0810 
    119 H119       26.7754   -1.8027  -10.0076 H         1 UNK         0.0810 
    120 H120       28.9390   -0.2306   -9.1599 H         1 UNK         0.3040 
    121 H121       31.4187   -0.9874  -10.6692 H         1 UNK         0.0766 
    122 H122       30.6756   -1.5308   -7.7450 H         1 UNK         0.0812 
    123 H123       32.1775   -1.9795   -8.5369 H         1 UNK         0.0812 
    124 H124       30.6674   -2.7165   -9.0492 H         1 UNK         0.0812 
    125 H125       30.1339    0.9301   -7.9322 H         1 UNK         0.3205 
    126 H126       30.7571    2.7749   -6.8788 H         1 UNK         0.0754 
    127 H127       31.6436    4.6792   -8.1680 H         1 UNK         0.0769 
    128 H128       30.4376    3.8352   -9.1239 H         1 UNK         0.0769 
    129 H129       32.1523    3.6179   -9.4745 H         1 UNK         0.0769 
    130 H130       32.2924    0.5426   -6.3612 H         1 UNK         0.2981 
    131 H131       35.0944    1.0757   -6.3678 H         1 UNK         0.0541 
    132 H132       33.0026    2.7281   -4.3842 H         1 UNK         0.3459 
    133 H133       34.0622    2.8903   -3.0066 H         1 UNK         0.3459 
    134 H134       35.2364   -1.0971   -5.0857 H         1 UNK         0.0612 
    135 H135       34.3986   -1.1809   -6.6072 H         1 UNK         0.0612 
    136 H136       33.1989   -3.3046   -6.3417 H         1 UNK         0.0624 
    137 H137       33.9360   -3.6579   -4.7942 H         1 UNK         0.0624 
@<TRIPOS>BOND
     1    1    2 1    
     2    1   72 1    
     3    1   73 1    
     4    1   74 1    
     5    2    3 2    
     6    2    4 am   BACKBONE|DICT|INTERRES
     7    4    5 1    
     8    4   75 1    
     9    5    6 1    
    10    5   35 1    
    11    5   76 1    
    12    6    7 1    
    13    6   77 1    
    14    6   78 1    
    15    7    8 1    
    16    8    9 1    
    17    8   79 1    
    18    8   80 1    
    19    9   10 ar   
    20    9   14 ar   
    21   10   11 ar   
    22   10   81 1    
    23   11   12 ar   
    24   11   71 1    
    25   12   13 ar   
    26   12   82 1    
    27   13   14 ar   
    28   13   15 1    
    29   14   83 1    
    30   15   16 1    
    31   15   84 1    
    32   15   85 1    
    33   16   17 1    
    34   17   18 1    
    35   17   86 1    
    36   17   87 1    
    37   18   19 1    
    38   18   37 1    
    39   18   88 1    
    40   19   20 am   BACKBONE|DICT|INTERRES
    41   19   89 1    
    42   20   21 2    
    43   20   22 1    
    44   22   23 1    
    45   22   24 1    
    46   22   90 1    
    47   23   91 1    
    48   23   92 1    
    49   23   93 1    
    50   24   25 am   BACKBONE|DICT|INTERRES
    51   24   94 1    
    52   25   26 2    
    53   25   27 1    
    54   27   28 1    
    55   27   29 1    
    56   27   95 1    
    57   28   96 1    
    58   28   97 1    
    59   28   98 1    
    60   29   30 am   BACKBONE|DICT|INTERRES
    61   29   99 1    
    62   30   31 2    
    63   30   32 1    
    64   32   33 1    
    65   32   34 1    
    66   32  100 1    
    67   33  101 1    
    68   33  102 1    
    69   33  103 1    
    70   34   35 am   BACKBONE|DICT|INTERRES
    71   34  104 1    
    72   35   36 2    
    73   37   38 2    
    74   37   39 am   BACKBONE|DICT|INTERRES
    75   39   40 1    
    76   39  105 1    
    77   40   41 1    
    78   40   42 1    
    79   40  106 1    
    80   41  107 1    
    81   41  108 1    
    82   41  109 1    
    83   42   43 2    
    84   42   44 am   BACKBONE|DICT|INTERRES
    85   44   45 1    
    86   44  110 1    
    87   45   46 1    
    88   45   47 1    
    89   45  111 1    
    90   46  112 1    
    91   46  113 1    
    92   46  114 1    
    93   47   48 2    
    94   47   49 am   BACKBONE|DICT|INTERRES
    95   49   50 1    
    96   49  115 1    
    97   50   51 1    
    98   50   52 1    
    99   50  116 1    
   100   51  117 1    
   101   51  118 1    
   102   51  119 1    
   103   52   53 2    
   104   52   54 am   BACKBONE|DICT|INTERRES
   105   54   55 1    
   106   54  120 1    
   107   55   56 1    
   108   55   57 1    
   109   55  121 1    
   110   56  122 1    
   111   56  123 1    
   112   56  124 1    
   113   57   58 2    
   114   57   59 am   BACKBONE|DICT|INTERRES
   115   59   60 1    
   116   59  125 1    
   117   60   61 1    
   118   60   62 1    
   119   60  126 1    
   120   61  127 1    
   121   61  128 1    
   122   61  129 1    
   123   62   63 2    
   124   62   64 am   BACKBONE|DICT|INTERRES
   125   64   65 1    
   126   64  130 1    
   127   65   66 1    
   128   65   69 1    
   129   65  131 1    
   130   66   67 am   BACKBONE|DICT|INTERRES
   131   66   68 2    
   132   67  132 1    
   133   67  133 1    
   134   69   70 1    
   135   69  134 1    
   136   69  135 1    
   137   70   71 1    
   138   71  136 1    
   139   71  137 1    
@<TRIPOS>SUBSTRUCTURE
     1 UNK         1 GROUP             0       ****    0 ROOT    
