@<TRIPOS>MOLECULE
3R137
137   139    1
SMALL
USER_CHARGES


@<TRIPOS>ATOM
      1 CA         24.0648   -2.4491    0.4020 C.3       0 UNK        -0.2020 
      2 C          25.4470   -2.0380   -0.0801 C.2       0 UNK         0.4855 
      3 O          25.8082   -0.8657    0.0301 O.2       0 UNK        -0.5197 
      4 N          26.2232   -2.9861   -0.6247 N.am      1 UNK        -0.4892 
      5 CA         27.5705   -2.7567   -1.1600 C.3       1 UNK         0.0835 
      6 C6         28.2666   -4.0820   -1.5550 C.3       12 UNK        -0.0855 
      7 S7         30.0840   -3.9436   -1.4716 S.3       12 UNK        -0.2931 
      8 C8         30.6116   -5.3725   -2.4696 C.3       12 UNK         0.0378 
      9 C9         30.5508   -5.0734   -3.9602 C.ar      12 UNK        -0.0802 
     10 C10        31.6179   -4.4257   -4.5900 C.ar      12 UNK        -0.0944 
     11 C11        31.5721   -4.1452   -5.9593 C.ar      12 UNK        -0.0787 
     12 C12        30.4422   -4.5079   -6.6989 C.ar      12 UNK        -0.0862 
     13 C13        29.3734   -5.1661   -6.0813 C.ar      12 UNK        -0.0733 
     14 C14        29.4386   -5.4551   -4.7150 C.ar      12 UNK        -0.0832 
     15 C15        28.1487   -5.5754   -6.8873 C.3       12 UNK         0.0240 
     16 S16        26.6505   -4.7003   -6.3369 S.3       12 UNK        -0.2522 
     17 C17        27.1008   -2.9743   -6.7123 C.3       12 UNK        -0.0967 
     18 CA         25.8535   -2.0620   -6.8085 C.3       5 UNK         0.0660 
     19 N          25.1273   -2.0043   -5.5407 N.am      5 UNK        -0.4015 
     20 C          23.8089   -1.8205   -5.4089 C.2       4 UNK         0.4946 
     21 O          23.0423   -1.6618   -6.3602 O.2       4 UNK        -0.5353 
     22 CA         23.2727   -1.7466   -3.9751 C.3       4 UNK         0.0277 
     23 CB         23.4028   -3.1023   -3.2593 C.3       4 UNK        -0.1981 
     24 N          23.9816   -0.7097   -3.2258 N.am      4 UNK        -0.4209 
     25 C          23.6627    0.5926   -3.2536 C.2       3 UNK         0.4942 
     26 O          22.6836    1.0454   -3.8473 O.2       3 UNK        -0.5208 
     27 CA         24.5824    1.5606   -2.4903 C.3       3 UNK         0.0250 
     28 CB         24.0206    1.8463   -1.0881 C.3       3 UNK        -0.1990 
     29 N          25.9562    1.0631   -2.3797 N.am      3 UNK        -0.4232 
     30 C          26.8549    1.1315   -3.3747 C.2       2 UNK         0.4993 
     31 O          26.6320    1.6733   -4.4565 O.2       2 UNK        -0.5286 
     32 CA         28.2359    0.4935   -3.1336 C.3       2 UNK         0.0209 
     33 CB         29.2181    1.5601   -2.6228 C.3       2 UNK        -0.1931 
     34 N          28.2294   -0.6303   -2.1916 N.am      2 UNK        -0.4546 
     35 C          27.5220   -1.7585   -2.3341 C.2       1 UNK         0.5154 
     36 O          26.7952   -1.9977   -3.3014 O.2       1 UNK        -0.5181 
     37 C          26.2033   -0.6346   -7.2680 C.2       5 UNK         0.5014 
     38 O          27.3773   -0.3199   -7.4689 O.2       5 UNK        -0.5248 
     39 N          25.1755    0.2074   -7.4430 N.am      6 UNK        -0.4434 
     40 CA         25.2883    1.6210   -7.8216 C.3       6 UNK         0.0363 
     41 CB         23.8993    2.2735   -7.7451 C.3       6 UNK        -0.1936 
     42 C          25.9290    1.8605   -9.2021 C.2       6 UNK         0.5081 
     43 O          26.4593    2.9450   -9.4399 O.2       6 UNK        -0.5248 
     44 N          25.8913    0.8461  -10.0779 N.am      7 UNK        -0.4718 
     45 CA         26.5944    0.8299  -11.3626 C.3       7 UNK         0.0273 
     46 CB         26.0311   -0.3061  -12.2318 C.3       7 UNK        -0.1935 
     47 C          28.1216    0.6868  -11.2134 C.2       7 UNK         0.5018 
     48 O          28.8509    1.1558  -12.0881 O.2       7 UNK        -0.5186 
     49 N          28.5760    0.0474  -10.1254 N.am      8 UNK        -0.4240 
     50 CA         29.9897   -0.0866   -9.7720 C.3       8 UNK         0.0235 
     51 CB         30.2377   -1.4536   -9.1115 C.3       8 UNK        -0.2000 
     52 C          30.4207    1.0561   -8.8431 C.2       8 UNK         0.4941 
     53 O          31.4796    1.6436   -9.0692 O.2       8 UNK        -0.5273 
     54 N          29.5877    1.3582   -7.8337 N.am      9 UNK        -0.4262 
     55 CA         29.7431    2.4092   -6.8236 C.3       9 UNK         0.0264 
     56 CB         29.5088    3.8011   -7.4518 C.3       9 UNK        -0.1955 
     57 C          31.0784    2.2833   -6.0677 C.2       9 UNK         0.5031 
     58 O          31.1892    1.4376   -5.1816 O.2       9 UNK        -0.5390 
     59 N          32.0690    3.1041   -6.4422 N.am      10 UNK        -0.4204 
     60 CA         33.4379    3.0648   -5.9217 C.3       10 UNK         0.0237 
     61 CB         34.1598    4.3628   -6.3212 C.3       10 UNK        -0.1985 
     62 C          34.2469    1.8337   -6.3788 C.2       10 UNK         0.4970 
     63 O          35.2826    1.5547   -5.7735 O.2       10 UNK        -0.4914 
     64 N          33.7818    1.1381   -7.4277 N.am      11 UNK        -0.4285 
     65 CA         34.3777   -0.0776   -8.0106 C.3       11 UNK         0.1007 
     66 C          35.7227    0.1598   -8.7636 C.2       11 UNK         0.5703 
     67 N          36.0858    1.3925   -9.0990 N.am      11 UNK        -0.7361 
     68 O          36.4367   -0.7882   -9.0832 O.2       11 UNK        -0.4986 
     69 C69        34.4502   -1.2696   -7.0099 C.3       12 UNK        -0.0947 
     70 S70        32.8324   -1.7002   -6.2793 S.3       12 UNK        -0.2240 
     71 C71        32.7599   -3.4804   -6.6383 C.3       12 UNK         0.0194 
     72 H72        23.9859   -2.3016    1.4786 H         1 UNK         0.0906 
     73 H73        23.3027   -1.8382   -0.0812 H         1 UNK         0.0906 
     74 H74        23.8505   -3.4954    0.1854 H         1 UNK         0.0906 
     75 H75        25.8696   -3.9282   -0.7112 H         1 UNK         0.3140 
     76 H76        28.1394   -2.3043   -0.3440 H         1 UNK         0.1085 
     77 H77        27.9818   -4.8785   -0.8656 H         1 UNK         0.0836 
     78 H78        27.9492   -4.4146   -2.5445 H         1 UNK         0.0836 
     79 H79        30.0009   -6.2425   -2.2224 H         1 UNK         0.0731 
     80 H80        31.6344   -5.6336   -2.1934 H         1 UNK         0.0731 
     81 H81        32.4866   -4.1373   -4.0137 H         1 UNK         0.1312 
     82 H82        30.4010   -4.2885   -7.7569 H         1 UNK         0.1406 
     83 H83        28.6125   -5.9670   -4.2403 H         1 UNK         0.1631 
     84 H84        27.9911   -6.6492   -6.7777 H         1 UNK         0.0717 
     85 H85        28.3000   -5.3944   -7.9527 H         1 UNK         0.0717 
     86 H86        27.7901   -2.6145   -5.9450 H         1 UNK         0.0934 
     87 H87        27.6530   -2.9632   -7.6540 H         1 UNK         0.0934 
     88 H88        25.1987   -2.4842   -7.5741 H         1 UNK         0.0739 
     89 H89        25.7050   -2.0764   -4.7033 H         1 UNK         0.3093 
     90 H90        22.2105   -1.4964   -4.0254 H         1 UNK         0.0818 
     91 H91        22.9172   -3.8925   -3.8337 H         1 UNK         0.0819 
     92 H92        24.4429   -3.3975   -3.1176 H         1 UNK         0.0819 
     93 H93        22.9233   -3.0780   -2.2815 H         1 UNK         0.0819 
     94 H94        24.8425   -0.9838   -2.7717 H         1 UNK         0.3041 
     95 H95        24.5977    2.5032   -3.0423 H         1 UNK         0.0784 
     96 H96        23.0262    2.2903   -1.1522 H         1 UNK         0.0793 
     97 H97        23.9308    0.9380   -0.4920 H         1 UNK         0.0793 
     98 H98        24.6526    2.5463   -0.5414 H         1 UNK         0.0793 
     99 H99        26.2023    0.5856   -1.5188 H         1 UNK         0.3024 
    100 H100       28.5937    0.1204   -4.0967 H         1 UNK         0.1171 
    101 H101       30.2301    1.1619   -2.5453 H         1 UNK         0.0786 
    102 H102       29.2608    2.4100   -3.3054 H         1 UNK         0.0786 
    103 H103       28.9289    1.9430   -1.6434 H         1 UNK         0.0786 
    104 H104       28.7848   -0.5129   -1.3563 H         1 UNK         0.2977 
    105 H105       24.2444   -0.1450   -7.2478 H         1 UNK         0.3127 
    106 H106       25.9337    2.1041   -7.0847 H         1 UNK         0.0770 
    107 H107       23.1977    1.8123   -8.4412 H         1 UNK         0.0814 
    108 H108       23.9527    3.3353   -7.9898 H         1 UNK         0.0814 
    109 H109       23.4801    2.1948   -6.7414 H         1 UNK         0.0814 
    110 H110       25.4058    0.0028   -9.8092 H         1 UNK         0.2983 
    111 H111       26.4025    1.7780  -11.8703 H         1 UNK         0.0947 
    112 H112       26.5172   -0.3267  -13.2083 H         1 UNK         0.0806 
    113 H113       24.9625   -0.1798  -12.4071 H         1 UNK         0.0806 
    114 H114       26.1844   -1.2830  -11.7715 H         1 UNK         0.0806 
    115 H115       27.9097   -0.2436   -9.4195 H         1 UNK         0.3000 
    116 H116       30.6013   -0.0368  -10.6757 H         1 UNK         0.0850 
    117 H117       31.3013   -1.6013   -8.9226 H         1 UNK         0.0810 
    118 H118       29.9072   -2.2708   -9.7525 H         1 UNK         0.0810 
    119 H119       29.7238   -1.5481   -8.1542 H         1 UNK         0.0810 
    120 H120       28.7714    0.7608   -7.7037 H         1 UNK         0.3040 
    121 H121       28.9555    2.2446   -6.0862 H         1 UNK         0.0766 
    122 H122       30.1831    4.0042   -8.2842 H         1 UNK         0.0812 
    123 H123       29.6375    4.5942   -6.7140 H         1 UNK         0.0812 
    124 H124       28.4909    3.8849   -7.8325 H         1 UNK         0.0812 
    125 H125       31.8906    3.7389   -7.2072 H         1 UNK         0.3205 
    126 H126       33.3824    3.0256   -4.8317 H         1 UNK         0.0754 
    127 H127       35.1749    4.3850   -5.9218 H         1 UNK         0.0769 
    128 H128       33.6429    5.2404   -5.9321 H         1 UNK         0.0769 
    129 H129       34.2335    4.4679   -7.4043 H         1 UNK         0.0769 
    130 H130       32.9338    1.4570   -7.8895 H         1 UNK         0.2981 
    131 H131       33.6844   -0.3730   -8.7986 H         1 UNK         0.0541 
    132 H132       36.9509    1.5348   -9.5960 H         1 UNK         0.3459 
    133 H133       35.5035    2.1783   -8.8595 H         1 UNK         0.3459 
    134 H134       35.1454   -1.0535   -6.1979 H         1 UNK         0.0612 
    135 H135       34.8481   -2.1531   -7.5116 H         1 UNK         0.0612 
    136 H136       32.7188   -3.6262   -7.7189 H         1 UNK         0.0624 
    137 H137       33.6801   -3.9556   -6.2950 H         1 UNK         0.0624 
@<TRIPOS>BOND
     1    1    2 1    
     2    1   72 1    
     3    1   73 1    
     4    1   74 1    
     5    2    3 2    
     6    2    4 am   BACKBONE|DICT|INTERRES
     7    4    5 1    
     8    4   75 1    
     9    5    6 1    
    10    5   35 1    
    11    5   76 1    
    12    6    7 1    
    13    6   77 1    
    14    6   78 1    
    15    7    8 1    
    16    8    9 1    
    17    8   79 1    
    18    8   80 1    
    19    9   10 ar   
    20    9   14 ar   
    21   10   11 ar   
    22   10   81 1    
    23   11   12 ar   
    24   11   71 1    
    25   12   13 ar   
    26   12   82 1    
    27   13   14 ar   
    28   13   15 1    
    29   14   83 1    
    30   15   16 1    
    31   15   84 1    
    32   15   85 1    
    33   16   17 1    
    34   17   18 1    
    35   17   86 1    
    36   17   87 1    
    37   18   19 1    
    38   18   37 1    
    39   18   88 1    
    40   19   20 am   BACKBONE|DICT|INTERRES
    41   19   89 1    
    42   20   21 2    
    43   20   22 1    
    44   22   23 1    
    45   22   24 1    
    46   22   90 1    
    47   23   91 1    
    48   23   92 1    
    49   23   93 1    
    50   24   25 am   BACKBONE|DICT|INTERRES
    51   24   94 1    
    52   25   26 2    
    53   25   27 1    
    54   27   28 1    
    55   27   29 1    
    56   27   95 1    
    57   28   96 1    
    58   28   97 1    
    59   28   98 1    
    60   29   30 am   BACKBONE|DICT|INTERRES
    61   29   99 1    
    62   30   31 2    
    63   30   32 1    
    64   32   33 1    
    65   32   34 1    
    66   32  100 1    
    67   33  101 1    
    68   33  102 1    
    69   33  103 1    
    70   34   35 am   BACKBONE|DICT|INTERRES
    71   34  104 1    
    72   35   36 2    
    73   37   38 2    
    74   37   39 am   BACKBONE|DICT|INTERRES
    75   39   40 1    
    76   39  105 1    
    77   40   41 1    
    78   40   42 1    
    79   40  106 1    
    80   41  107 1    
    81   41  108 1    
    82   41  109 1    
    83   42   43 2    
    84   42   44 am   BACKBONE|DICT|INTERRES
    85   44   45 1    
    86   44  110 1    
    87   45   46 1    
    88   45   47 1    
    89   45  111 1    
    90   46  112 1    
    91   46  113 1    
    92   46  114 1    
    93   47   48 2    
    94   47   49 am   BACKBONE|DICT|INTERRES
    95   49   50 1    
    96   49  115 1    
    97   50   51 1    
    98   50   52 1    
    99   50  116 1    
   100   51  117 1    
   101   51  118 1    
   102   51  119 1    
   103   52   53 2    
   104   52   54 am   BACKBONE|DICT|INTERRES
   105   54   55 1    
   106   54  120 1    
   107   55   56 1    
   108   55   57 1    
   109   55  121 1    
   110   56  122 1    
   111   56  123 1    
   112   56  124 1    
   113   57   58 2    
   114   57   59 am   BACKBONE|DICT|INTERRES
   115   59   60 1    
   116   59  125 1    
   117   60   61 1    
   118   60   62 1    
   119   60  126 1    
   120   61  127 1    
   121   61  128 1    
   122   61  129 1    
   123   62   63 2    
   124   62   64 am   BACKBONE|DICT|INTERRES
   125   64   65 1    
   126   64  130 1    
   127   65   66 1    
   128   65   69 1    
   129   65  131 1    
   130   66   67 am   BACKBONE|DICT|INTERRES
   131   66   68 2    
   132   67  132 1    
   133   67  133 1    
   134   69   70 1    
   135   69  134 1    
   136   69  135 1    
   137   70   71 1    
   138   71  136 1    
   139   71  137 1    
@<TRIPOS>SUBSTRUCTURE
     1 UNK         1 GROUP             0       ****    0 ROOT    
