@<TRIPOS>MOLECULE
3R137
137   139    1
SMALL
USER_CHARGES


@<TRIPOS>ATOM
      1 CA         23.3672   -4.5622   -8.2611 C.3       0 UNK        -0.2020 
      2 C          24.0560   -4.9062   -6.9494 C.2       0 UNK         0.4855 
      3 O          23.8202   -5.9801   -6.3949 O.2       0 UNK        -0.5197 
      4 N          24.8997   -3.9982   -6.4461 N.am      1 UNK        -0.4892 
      5 CA         25.5926   -4.1216   -5.1582 C.3       1 UNK         0.0835 
      6 C6         26.7962   -3.1489   -5.0656 C.3       12 UNK        -0.0855 
      7 S7         28.2059   -3.7322   -6.0630 S.3       12 UNK        -0.2931 
      8 C8         29.4664   -4.0334   -4.7814 C.3       12 UNK         0.0378 
      9 C9         30.3758   -2.8262   -4.5931 C.ar      12 UNK        -0.0802 
     10 C10        31.5987   -2.7732   -5.2675 C.ar      12 UNK        -0.0944 
     11 C11        32.4632   -1.6874   -5.1057 C.ar      12 UNK        -0.0787 
     12 C12        32.0716   -0.6322   -4.2708 C.ar      12 UNK        -0.0862 
     13 C13        30.8541   -0.6655   -3.5816 C.ar      12 UNK        -0.0733 
     14 C14        30.0131   -1.7762   -3.7416 C.ar      12 UNK        -0.0832 
     15 C15        30.5240    0.4992   -2.6432 C.3       12 UNK         0.0240 
     16 S16        28.7559    0.7558   -2.2634 S.3       12 UNK        -0.2522 
     17 C17        28.1118    1.3847   -3.8503 C.3       12 UNK        -0.0967 
     18 CA         26.6821    0.8445   -4.1211 C.3       5 UNK         0.0660 
     19 N          25.6786    1.2764   -3.1393 N.am      5 UNK        -0.4015 
     20 C          25.2452    2.5271   -2.9140 C.2       4 UNK         0.4946 
     21 O          25.7205    3.5215   -3.4641 O.2       4 UNK        -0.5353 
     22 CA         24.0537    2.7213   -1.9500 C.3       4 UNK         0.0277 
     23 CB         22.8669    3.3680   -2.6869 C.3       4 UNK        -0.1981 
     24 N          23.5878    1.4802   -1.3250 N.am      4 UNK        -0.4209 
     25 C          24.1454    0.8962   -0.2558 C.2       3 UNK         0.4942 
     26 O          25.0703    1.3914    0.3885 O.2       3 UNK        -0.5208 
     27 CA         23.5999   -0.4896    0.1506 C.3       3 UNK         0.0250 
     28 CB         22.5842   -0.3479    1.2962 C.3       3 UNK        -0.1990 
     29 N          22.9935   -1.2745   -0.9381 N.am      3 UNK        -0.4232 
     30 C          23.6055   -1.6140   -2.0816 C.2       2 UNK         0.4993 
     31 O          24.7369   -1.2280   -2.3824 O.2       2 UNK        -0.5286 
     32 CA         22.8015   -2.4696   -3.0800 C.3       2 UNK         0.0209 
     33 CB         21.6719   -1.6393   -3.7142 C.3       2 UNK        -0.1931 
     34 N          23.6575   -2.9921   -4.1504 N.am      2 UNK        -0.4546 
     35 C          24.6335   -3.8951   -3.9736 C.2       1 UNK         0.5154 
     36 O          24.8031   -4.5230   -2.9266 O.2       1 UNK        -0.5181 
     37 C          26.1781    1.0774   -5.5610 C.2       5 UNK         0.5014 
     38 O          26.9153    1.5726   -6.4154 O.2       5 UNK        -0.5248 
     39 N          24.9109    0.7089   -5.8025 N.am      6 UNK        -0.4434 
     40 CA         24.2703    0.7438   -7.1166 C.3       6 UNK         0.0363 
     41 CB         22.7607    0.5025   -6.9577 C.3       6 UNK        -0.1936 
     42 C          24.8890   -0.3132   -8.0426 C.2       6 UNK         0.5081 
     43 O          25.0162   -1.4679   -7.6314 O.2       6 UNK        -0.5248 
     44 N          25.2589    0.1045   -9.2606 N.am      7 UNK        -0.4718 
     45 CA         25.9145   -0.6938  -10.3088 C.3       7 UNK         0.0273 
     46 CB         24.9796   -1.8145  -10.8125 C.3       7 UNK        -0.1935 
     47 C          27.3125   -1.2267   -9.9223 C.2       7 UNK         0.5018 
     48 O          27.7824   -2.1911  -10.5297 O.2       7 UNK        -0.5186 
     49 N          27.9595   -0.5899   -8.9367 N.am      8 UNK        -0.4240 
     50 CA         29.3123   -0.9107   -8.4848 C.3       8 UNK         0.0235 
     51 CB         29.5532   -0.2380   -7.1267 C.3       8 UNK        -0.2000 
     52 C          30.3839   -0.4635   -9.4913 C.2       8 UNK         0.4941 
     53 O          30.1678    0.4847  -10.2519 O.2       8 UNK        -0.5273 
     54 N          31.5390   -1.1361   -9.4413 N.am      9 UNK        -0.4262 
     55 CA         32.7500   -0.7646  -10.1736 C.3       9 UNK         0.0264 
     56 CB         33.6920   -1.9809  -10.2136 C.3       9 UNK        -0.1955 
     57 C          33.4539    0.4351   -9.5161 C.2       9 UNK         0.5031 
     58 O          33.2223    0.7253   -8.3394 O.2       9 UNK        -0.5390 
     59 N          34.3611    1.0767  -10.2614 N.am      10 UNK        -0.4204 
     60 CA         35.2258    2.1577   -9.7771 C.3       10 UNK         0.0237 
     61 CB         35.6738    3.0144  -10.9770 C.3       10 UNK        -0.1985 
     62 C          36.4139    1.6092   -8.9581 C.2       10 UNK         0.4970 
     63 O          37.5695    1.8357   -9.3220 O.2       10 UNK        -0.4914 
     64 N          36.1088    0.8718   -7.8830 N.am      11 UNK        -0.4285 
     65 CA         37.0894    0.2454   -6.9822 C.3       11 UNK         0.1007 
     66 C          37.8045    1.2194   -5.9987 C.2       11 UNK         0.5703 
     67 N          37.3832    2.4730   -5.8767 N.am      11 UNK        -0.7361 
     68 O          38.7722    0.8330   -5.3469 O.2       11 UNK        -0.4986 
     69 C69        36.5031   -1.0030   -6.2685 C.3       12 UNK        -0.0947 
     70 S70        35.1028   -0.6463   -5.1502 S.3       12 UNK        -0.2240 
     71 C71        33.7885   -1.6889   -5.8710 C.3       12 UNK         0.0194 
     72 H72        23.9042   -5.0092   -9.0971 H         1 UNK         0.0906 
     73 H73        22.3468   -4.9445   -8.2658 H         1 UNK         0.0906 
     74 H74        23.3193   -3.4847   -8.4166 H         1 UNK         0.0906 
     75 H75        25.0484   -3.1201   -6.9468 H         1 UNK         0.3140 
     76 H76        25.9642   -5.1448   -5.0635 H         1 UNK         0.1085 
     77 H77        27.1187   -3.0170   -4.0311 H         1 UNK         0.0836 
     78 H78        26.5147   -2.1551   -5.4160 H         1 UNK         0.0836 
     79 H79        30.0593   -4.8984   -5.0829 H         1 UNK         0.0731 
     80 H80        29.0006   -4.3135   -3.8355 H         1 UNK         0.0731 
     81 H81        31.8809   -3.5869   -5.9219 H         1 UNK         0.1312 
     82 H82        32.7182    0.2246   -4.1454 H         1 UNK         0.1406 
     83 H83        29.0764   -1.8295   -3.2057 H         1 UNK         0.1631 
     84 H84        30.9198    1.4301   -3.0530 H         1 UNK         0.0717 
     85 H85        31.0498    0.3318   -1.7024 H         1 UNK         0.0717 
     86 H86        28.1298    2.4753   -3.8424 H         1 UNK         0.0934 
     87 H87        28.7937    1.0778   -4.6440 H         1 UNK         0.0934 
     88 H88        26.7350   -0.2400   -4.0200 H         1 UNK         0.0739 
     89 H89        25.2432    0.5065   -2.6351 H         1 UNK         0.3093 
     90 H90        24.3831    3.4076   -1.1668 H         1 UNK         0.0818 
     91 H91        22.5047    2.7391   -3.5012 H         1 UNK         0.0819 
     92 H92        22.0334    3.5562   -2.0098 H         1 UNK         0.0819 
     93 H93        23.1498    4.3287   -3.1197 H         1 UNK         0.0819 
     94 H94        22.8205    1.0048   -1.7768 H         1 UNK         0.3041 
     95 H95        24.4510   -1.0649    0.5210 H         1 UNK         0.0784 
     96 H96        23.0126    0.2063    2.1328 H         1 UNK         0.0793 
     97 H97        21.6878    0.1857    0.9773 H         1 UNK         0.0793 
     98 H98        22.2785   -1.3213    1.6803 H         1 UNK         0.0793 
     99 H99        22.0556   -1.6124   -0.7734 H         1 UNK         0.3024 
    100 H100       22.3710   -3.3161   -2.5401 H         1 UNK         0.1171 
    101 H101       21.1254   -2.2162   -4.4609 H         1 UNK         0.0786 
    102 H102       20.9458   -1.3218   -2.9647 H         1 UNK         0.0786 
    103 H103       22.0520   -0.7391   -4.1978 H         1 UNK         0.0786 
    104 H104       23.5965   -2.5415   -5.0511 H         1 UNK         0.2977 
    105 H105       24.3827    0.2927   -5.0515 H         1 UNK         0.3127 
    106 H106       24.4215    1.7381   -7.5427 H         1 UNK         0.0770 
    107 H107       22.5474   -0.4971   -6.5775 H         1 UNK         0.0814 
    108 H108       22.2516    0.5964   -7.9178 H         1 UNK         0.0814 
    109 H109       22.3084    1.2271   -6.2803 H         1 UNK         0.0814 
    110 H110       25.1155    1.0791   -9.4900 H         1 UNK         0.2983 
    111 H111       26.0829   -0.0111  -11.1433 H         1 UNK         0.0947 
    112 H112       23.9891   -1.4306  -11.0561 H         1 UNK         0.0806 
    113 H113       24.8634   -2.6043  -10.0710 H         1 UNK         0.0806 
    114 H114       25.3771   -2.2783  -11.7159 H         1 UNK         0.0806 
    115 H115       27.5107    0.2004   -8.4949 H         1 UNK         0.3000 
    116 H116       29.3834   -1.9931   -8.3564 H         1 UNK         0.0850 
    117 H117       30.5664   -0.4220   -6.7715 H         1 UNK         0.0810 
    118 H118       28.8696   -0.6243   -6.3709 H         1 UNK         0.0810 
    119 H119       29.4262    0.8435   -7.1833 H         1 UNK         0.0810 
    120 H120       31.6400   -1.8668   -8.7527 H         1 UNK         0.3040 
    121 H121       32.4755   -0.4927  -11.1952 H         1 UNK         0.0766 
    122 H122       33.2096   -2.8406  -10.6792 H         1 UNK         0.0812 
    123 H123       34.0145   -2.2782   -9.2149 H         1 UNK         0.0812 
    124 H124       34.5908   -1.7665  -10.7932 H         1 UNK         0.0812 
    125 H125       34.5279    0.7574  -11.2053 H         1 UNK         0.3205 
    126 H126       34.6477    2.8024   -9.1113 H         1 UNK         0.0754 
    127 H127       36.2608    2.4362  -11.6919 H         1 UNK         0.0769 
    128 H128       36.2903    3.8531  -10.6504 H         1 UNK         0.0769 
    129 H129       34.8177    3.4330  -11.5066 H         1 UNK         0.0769 
    130 H130       35.1287    0.7370   -7.6554 H         1 UNK         0.2981 
    131 H131       37.8919   -0.1311   -7.6196 H         1 UNK         0.0541 
    132 H132       36.5878    2.7973   -6.4021 H         1 UNK         0.3459 
    133 H133       37.8589    3.0946   -5.2420 H         1 UNK         0.3459 
    134 H134       36.1883   -1.7293   -7.0193 H         1 UNK         0.0612 
    135 H135       37.2780   -1.5066   -5.6879 H         1 UNK         0.0612 
    136 H136       33.5999   -1.3700   -6.8944 H         1 UNK         0.0624 
    137 H137       34.1676   -2.7105   -5.9288 H         1 UNK         0.0624 
@<TRIPOS>BOND
     1    1    2 1    
     2    1   72 1    
     3    1   73 1    
     4    1   74 1    
     5    2    3 2    
     6    2    4 am   BACKBONE|DICT|INTERRES
     7    4    5 1    
     8    4   75 1    
     9    5    6 1    
    10    5   35 1    
    11    5   76 1    
    12    6    7 1    
    13    6   77 1    
    14    6   78 1    
    15    7    8 1    
    16    8    9 1    
    17    8   79 1    
    18    8   80 1    
    19    9   10 ar   
    20    9   14 ar   
    21   10   11 ar   
    22   10   81 1    
    23   11   12 ar   
    24   11   71 1    
    25   12   13 ar   
    26   12   82 1    
    27   13   14 ar   
    28   13   15 1    
    29   14   83 1    
    30   15   16 1    
    31   15   84 1    
    32   15   85 1    
    33   16   17 1    
    34   17   18 1    
    35   17   86 1    
    36   17   87 1    
    37   18   19 1    
    38   18   37 1    
    39   18   88 1    
    40   19   20 am   BACKBONE|DICT|INTERRES
    41   19   89 1    
    42   20   21 2    
    43   20   22 1    
    44   22   23 1    
    45   22   24 1    
    46   22   90 1    
    47   23   91 1    
    48   23   92 1    
    49   23   93 1    
    50   24   25 am   BACKBONE|DICT|INTERRES
    51   24   94 1    
    52   25   26 2    
    53   25   27 1    
    54   27   28 1    
    55   27   29 1    
    56   27   95 1    
    57   28   96 1    
    58   28   97 1    
    59   28   98 1    
    60   29   30 am   BACKBONE|DICT|INTERRES
    61   29   99 1    
    62   30   31 2    
    63   30   32 1    
    64   32   33 1    
    65   32   34 1    
    66   32  100 1    
    67   33  101 1    
    68   33  102 1    
    69   33  103 1    
    70   34   35 am   BACKBONE|DICT|INTERRES
    71   34  104 1    
    72   35   36 2    
    73   37   38 2    
    74   37   39 am   BACKBONE|DICT|INTERRES
    75   39   40 1    
    76   39  105 1    
    77   40   41 1    
    78   40   42 1    
    79   40  106 1    
    80   41  107 1    
    81   41  108 1    
    82   41  109 1    
    83   42   43 2    
    84   42   44 am   BACKBONE|DICT|INTERRES
    85   44   45 1    
    86   44  110 1    
    87   45   46 1    
    88   45   47 1    
    89   45  111 1    
    90   46  112 1    
    91   46  113 1    
    92   46  114 1    
    93   47   48 2    
    94   47   49 am   BACKBONE|DICT|INTERRES
    95   49   50 1    
    96   49  115 1    
    97   50   51 1    
    98   50   52 1    
    99   50  116 1    
   100   51  117 1    
   101   51  118 1    
   102   51  119 1    
   103   52   53 2    
   104   52   54 am   BACKBONE|DICT|INTERRES
   105   54   55 1    
   106   54  120 1    
   107   55   56 1    
   108   55   57 1    
   109   55  121 1    
   110   56  122 1    
   111   56  123 1    
   112   56  124 1    
   113   57   58 2    
   114   57   59 am   BACKBONE|DICT|INTERRES
   115   59   60 1    
   116   59  125 1    
   117   60   61 1    
   118   60   62 1    
   119   60  126 1    
   120   61  127 1    
   121   61  128 1    
   122   61  129 1    
   123   62   63 2    
   124   62   64 am   BACKBONE|DICT|INTERRES
   125   64   65 1    
   126   64  130 1    
   127   65   66 1    
   128   65   69 1    
   129   65  131 1    
   130   66   67 am   BACKBONE|DICT|INTERRES
   131   66   68 2    
   132   67  132 1    
   133   67  133 1    
   134   69   70 1    
   135   69  134 1    
   136   69  135 1    
   137   70   71 1    
   138   71  136 1    
   139   71  137 1    
@<TRIPOS>SUBSTRUCTURE
     1 UNK         1 GROUP             0       ****    0 ROOT    
