@<TRIPOS>MOLECULE
3R137
137   139    1
SMALL
USER_CHARGES


@<TRIPOS>ATOM
      1 CA         26.0969   -4.2503    2.3574 C.3       0 UNK        -0.2020 
      2 C          26.7101   -3.4246    1.2367 C.2       0 UNK         0.4855 
      3 O          27.0528   -2.2620    1.4496 O.2       0 UNK        -0.5197 
      4 N          26.8383   -4.0103    0.0388 N.am      1 UNK        -0.4892 
      5 CA         27.4362   -3.3827   -1.1491 C.3       1 UNK         0.0835 
      6 C6         28.1662   -4.4181   -2.0445 C.3       12 UNK        -0.0855 
      7 S7         29.7893   -4.8461   -1.3326 S.3       12 UNK        -0.2931 
      8 C8         30.9366   -4.3318   -2.6631 C.3       12 UNK         0.0378 
      9 C9         30.9177   -2.8447   -3.0330 C.ar      12 UNK        -0.0802 
     10 C10        31.2614   -2.4758   -4.3381 C.ar      12 UNK        -0.0944 
     11 C11        31.3225   -1.1303   -4.7105 C.ar      12 UNK        -0.0787 
     12 C12        31.0146   -0.1447   -3.7716 C.ar      12 UNK        -0.0862 
     13 C13        30.6327   -0.4888   -2.4713 C.ar      12 UNK        -0.0733 
     14 C14        30.6158   -1.8399   -2.1030 C.ar      12 UNK        -0.0832 
     15 C15        30.2698    0.5854   -1.4450 C.3       12 UNK         0.0240 
     16 S16        29.3148    1.9949   -2.1228 S.3       12 UNK        -0.2522 
     17 C17        27.8264    1.1713   -2.7805 C.3       12 UNK        -0.0967 
     18 CA         27.7715    1.1992   -4.3354 C.3       5 UNK         0.0660 
     19 N          27.3776   -0.0930   -4.8947 N.am      5 UNK        -0.4015 
     20 C          27.4911   -0.4581   -6.1790 C.2       4 UNK         0.4946 
     21 O          27.9012    0.2810   -7.0755 O.2       4 UNK        -0.5353 
     22 CA         27.0727   -1.8954   -6.5196 C.3       4 UNK         0.0277 
     23 CB         28.2012   -2.8802   -6.1726 C.3       4 UNK        -0.1981 
     24 N          25.8620   -2.2781   -5.7923 N.am      4 UNK        -0.4209 
     25 C          24.6160   -2.1460   -6.2655 C.2       3 UNK         0.4942 
     26 O          24.3537   -1.7527   -7.4013 O.2       3 UNK        -0.5208 
     27 CA         23.4561   -2.5100   -5.3188 C.3       3 UNK         0.0250 
     28 CB         23.0130   -3.9637   -5.5504 C.3       3 UNK        -0.1990 
     29 N          23.7521   -2.3173   -3.8956 N.am      3 UNK        -0.4232 
     30 C          24.0202   -1.1351   -3.3247 C.2       2 UNK         0.4993 
     31 O          24.0838   -0.0707   -3.9384 O.2       2 UNK        -0.5286 
     32 CA         24.3395   -1.1496   -1.8217 C.3       2 UNK         0.0209 
     33 CB         23.0466   -1.2326   -0.9945 C.3       2 UNK        -0.1931 
     34 N          25.2738   -2.1953   -1.3800 N.am      2 UNK        -0.4546 
     35 C          26.4525   -2.5001   -1.9445 C.2       1 UNK         0.5154 
     36 O          26.7980   -2.0806   -3.0488 O.2       1 UNK        -0.5181 
     37 C          26.9048    2.3563   -4.8672 C.2       5 UNK         0.5014 
     38 O          27.4559    3.3702   -5.2977 O.2       5 UNK        -0.5248 
     39 N          25.5728    2.1832   -4.8643 N.am      6 UNK        -0.4434 
     40 CA         24.6205    3.1831   -5.3624 C.3       6 UNK         0.0363 
     41 CB         23.2042    2.8471   -4.8694 C.3       6 UNK        -0.1936 
     42 C          24.6366    3.3131   -6.8942 C.2       6 UNK         0.5081 
     43 O          24.3718    4.3984   -7.4116 O.2       6 UNK        -0.5248 
     44 N          24.9593    2.2149   -7.5909 N.am      7 UNK        -0.4718 
     45 CA         25.1301    2.1778   -9.0452 C.3       7 UNK         0.0273 
     46 CB         25.0095    0.7230   -9.5257 C.3       7 UNK        -0.1935 
     47 C          26.4686    2.7774   -9.5116 C.2       7 UNK         0.5018 
     48 O          26.5882    3.1093  -10.6916 O.2       7 UNK        -0.5186 
     49 N          27.4434    2.8773   -8.5934 N.am      8 UNK        -0.4240 
     50 CA         28.8453    3.2475   -8.8119 C.3       8 UNK         0.0235 
     51 CB         28.9715    4.7257   -9.2385 C.3       8 UNK        -0.2000 
     52 C          29.5396    2.2671   -9.7763 C.2       8 UNK         0.4941 
     53 O          30.1454    2.6894  -10.7643 O.2       8 UNK        -0.5273 
     54 N          29.3946    0.9664   -9.4844 N.am      9 UNK        -0.4262 
     55 CA         29.9459   -0.1403  -10.2693 C.3       9 UNK         0.0264 
     56 CB         29.3782   -1.4609   -9.7266 C.3       9 UNK        -0.1955 
     57 C          31.4848   -0.1701  -10.2600 C.2       9 UNK         0.5031 
     58 O          32.1126    0.3474   -9.3326 O.2       9 UNK        -0.5390 
     59 N          32.0678   -0.8137  -11.2793 N.am      10 UNK        -0.4204 
     60 CA         33.5130   -0.9487  -11.4919 C.3       10 UNK         0.0237 
     61 CB         33.7686   -1.2530  -12.9808 C.3       10 UNK        -0.1985 
     62 C          34.1700   -1.9837  -10.5532 C.2       10 UNK         0.4970 
     63 O          34.7965   -2.9353  -11.0232 O.2       10 UNK        -0.4914 
     64 N          34.0161   -1.7777   -9.2417 N.am      11 UNK        -0.4285 
     65 CA         34.6472   -2.5646   -8.1703 C.3       11 UNK         0.1007 
     66 C          36.1673   -2.2923   -7.9648 C.2       11 UNK         0.5703 
     67 N          36.7498   -1.2621   -8.5679 N.am      11 UNK        -0.7361 
     68 O          36.8347   -3.0433   -7.2571 O.2       11 UNK        -0.4986 
     69 C69        33.8504   -2.4656   -6.8413 C.3       12 UNK        -0.0947 
     70 S70        33.5454   -0.7456   -6.2986 S.3       12 UNK        -0.2240 
     71 C71        31.7342   -0.7290   -6.1187 C.3       12 UNK         0.0194 
     72 H72        25.8307   -5.2543    2.0272 H         1 UNK         0.0906 
     73 H73        26.8018   -4.3418    3.1834 H         1 UNK         0.0906 
     74 H74        25.1953   -3.7659    2.7315 H         1 UNK         0.0906 
     75 H75        26.5349   -4.9673   -0.0793 H         1 UNK         0.3140 
     76 H76        28.1817   -2.6655   -0.8032 H         1 UNK         0.1085 
     77 H77        27.5706   -5.3249   -2.1606 H         1 UNK         0.0836 
     78 H78        28.3320   -4.0464   -3.0561 H         1 UNK         0.0836 
     79 H79        30.7180   -4.9359   -3.5453 H         1 UNK         0.0731 
     80 H80        31.9511   -4.5927   -2.3592 H         1 UNK         0.0731 
     81 H81        31.5061   -3.2393   -5.0630 H         1 UNK         0.1312 
     82 H82        31.0717    0.8962   -4.0575 H         1 UNK         0.1406 
     83 H83        30.3772   -2.1076   -1.0839 H         1 UNK         0.1631 
     84 H84        31.1913    0.9694   -1.0060 H         1 UNK         0.0717 
     85 H85        29.6966    0.1483   -0.6256 H         1 UNK         0.0717 
     86 H86        27.8364    0.1476   -2.4103 H         1 UNK         0.0934 
     87 H87        26.9416    1.6230   -2.3273 H         1 UNK         0.0934 
     88 H88        28.7790    1.3767   -4.7165 H         1 UNK         0.0739 
     89 H89        27.0738   -0.7962   -4.2235 H         1 UNK         0.3093 
     90 H90        26.8931   -1.9491   -7.5954 H         1 UNK         0.0818 
     91 H91        28.4387   -2.8637   -5.1091 H         1 UNK         0.0819 
     92 H92        27.9322   -3.9019   -6.4401 H         1 UNK         0.0819 
     93 H93        29.1177   -2.6362   -6.7075 H         1 UNK         0.0819 
     94 H94        25.9859   -2.5504   -4.8233 H         1 UNK         0.3041 
     95 H95        22.6198   -1.8542   -5.5703 H         1 UNK         0.0784 
     96 H96        22.7586   -4.1318   -6.5980 H         1 UNK         0.0793 
     97 H97        23.7997   -4.6724   -5.2884 H         1 UNK         0.0793 
     98 H98        22.1286   -4.2085   -4.9618 H         1 UNK         0.0793 
     99 H99        23.7515   -3.1404   -3.3107 H         1 UNK         0.3024 
    100 H100       24.8170   -0.1932   -1.5982 H         1 UNK         0.1171 
    101 H101       22.3386   -0.4587   -1.2953 H         1 UNK         0.0786 
    102 H102       23.2452   -1.0896    0.0679 H         1 UNK         0.0786 
    103 H103       22.5489   -2.1955   -1.1160 H         1 UNK         0.0786 
    104 H104       25.0906   -2.6016   -0.4739 H         1 UNK         0.2977 
    105 H105       25.1712    1.3154   -4.5102 H         1 UNK         0.3127 
    106 H106       24.9007    4.1534   -4.9463 H         1 UNK         0.0770 
    107 H107       22.8458    1.9038   -5.2834 H         1 UNK         0.0814 
    108 H108       22.4954    3.6216   -5.1649 H         1 UNK         0.0814 
    109 H109       23.1684    2.7713   -3.7825 H         1 UNK         0.0814 
    110 H110       25.1509    1.3615   -7.0855 H         1 UNK         0.2983 
    111 H111       24.3302    2.7604   -9.5079 H         1 UNK         0.0947 
    112 H112       25.1086    0.6585  -10.6101 H         1 UNK         0.0806 
    113 H113       24.0402    0.2979   -9.2648 H         1 UNK         0.0806 
    114 H114       25.7827    0.0884   -9.0900 H         1 UNK         0.0806 
    115 H115       27.2316    2.5428   -7.6622 H         1 UNK         0.3000 
    116 H116       29.3449    3.1373   -7.8478 H         1 UNK         0.0850 
    117 H117       30.0188    5.0243   -9.2979 H         1 UNK         0.0810 
    118 H118       28.4855    5.3867   -8.5210 H         1 UNK         0.0810 
    119 H119       28.5270    4.9075  -10.2174 H         1 UNK         0.0810 
    120 H120       28.8851    0.7173   -8.6388 H         1 UNK         0.3040 
    121 H121       29.6108   -0.0111  -11.3006 H         1 UNK         0.0766 
    122 H122       28.2881   -1.4637   -9.7476 H         1 UNK         0.0812 
    123 H123       29.6942   -1.6328   -8.6988 H         1 UNK         0.0812 
    124 H124       29.7156   -2.3125  -10.3186 H         1 UNK         0.0812 
    125 H125       31.4762   -1.2492  -11.9726 H         1 UNK         0.3205 
    126 H126       33.9800    0.0139  -11.2717 H         1 UNK         0.0754 
    127 H127       34.8376   -1.3095  -13.1915 H         1 UNK         0.0769 
    128 H128       33.3575   -0.4727  -13.6219 H         1 UNK         0.0769 
    129 H129       33.3257   -2.2034  -13.2817 H         1 UNK         0.0769 
    130 H130       33.4688   -0.9729   -8.9466 H         1 UNK         0.2981 
    131 H131       34.5947   -3.6103   -8.4793 H         1 UNK         0.0541 
    132 H132       36.2105   -0.6338   -9.1406 H         1 UNK         0.3459 
    133 H133       37.7354   -1.1027   -8.4309 H         1 UNK         0.3459 
    134 H134       32.8978   -2.9790   -6.9712 H         1 UNK         0.0612 
    135 H135       34.3570   -2.9998   -6.0355 H         1 UNK         0.0612 
    136 H136       31.2689   -1.3823   -6.8566 H         1 UNK         0.0624 
    137 H137       31.3728    0.2756   -6.3449 H         1 UNK         0.0624 
@<TRIPOS>BOND
     1    1    2 1    
     2    1   72 1    
     3    1   73 1    
     4    1   74 1    
     5    2    3 2    
     6    2    4 am   BACKBONE|DICT|INTERRES
     7    4    5 1    
     8    4   75 1    
     9    5    6 1    
    10    5   35 1    
    11    5   76 1    
    12    6    7 1    
    13    6   77 1    
    14    6   78 1    
    15    7    8 1    
    16    8    9 1    
    17    8   79 1    
    18    8   80 1    
    19    9   10 ar   
    20    9   14 ar   
    21   10   11 ar   
    22   10   81 1    
    23   11   12 ar   
    24   11   71 1    
    25   12   13 ar   
    26   12   82 1    
    27   13   14 ar   
    28   13   15 1    
    29   14   83 1    
    30   15   16 1    
    31   15   84 1    
    32   15   85 1    
    33   16   17 1    
    34   17   18 1    
    35   17   86 1    
    36   17   87 1    
    37   18   19 1    
    38   18   37 1    
    39   18   88 1    
    40   19   20 am   BACKBONE|DICT|INTERRES
    41   19   89 1    
    42   20   21 2    
    43   20   22 1    
    44   22   23 1    
    45   22   24 1    
    46   22   90 1    
    47   23   91 1    
    48   23   92 1    
    49   23   93 1    
    50   24   25 am   BACKBONE|DICT|INTERRES
    51   24   94 1    
    52   25   26 2    
    53   25   27 1    
    54   27   28 1    
    55   27   29 1    
    56   27   95 1    
    57   28   96 1    
    58   28   97 1    
    59   28   98 1    
    60   29   30 am   BACKBONE|DICT|INTERRES
    61   29   99 1    
    62   30   31 2    
    63   30   32 1    
    64   32   33 1    
    65   32   34 1    
    66   32  100 1    
    67   33  101 1    
    68   33  102 1    
    69   33  103 1    
    70   34   35 am   BACKBONE|DICT|INTERRES
    71   34  104 1    
    72   35   36 2    
    73   37   38 2    
    74   37   39 am   BACKBONE|DICT|INTERRES
    75   39   40 1    
    76   39  105 1    
    77   40   41 1    
    78   40   42 1    
    79   40  106 1    
    80   41  107 1    
    81   41  108 1    
    82   41  109 1    
    83   42   43 2    
    84   42   44 am   BACKBONE|DICT|INTERRES
    85   44   45 1    
    86   44  110 1    
    87   45   46 1    
    88   45   47 1    
    89   45  111 1    
    90   46  112 1    
    91   46  113 1    
    92   46  114 1    
    93   47   48 2    
    94   47   49 am   BACKBONE|DICT|INTERRES
    95   49   50 1    
    96   49  115 1    
    97   50   51 1    
    98   50   52 1    
    99   50  116 1    
   100   51  117 1    
   101   51  118 1    
   102   51  119 1    
   103   52   53 2    
   104   52   54 am   BACKBONE|DICT|INTERRES
   105   54   55 1    
   106   54  120 1    
   107   55   56 1    
   108   55   57 1    
   109   55  121 1    
   110   56  122 1    
   111   56  123 1    
   112   56  124 1    
   113   57   58 2    
   114   57   59 am   BACKBONE|DICT|INTERRES
   115   59   60 1    
   116   59  125 1    
   117   60   61 1    
   118   60   62 1    
   119   60  126 1    
   120   61  127 1    
   121   61  128 1    
   122   61  129 1    
   123   62   63 2    
   124   62   64 am   BACKBONE|DICT|INTERRES
   125   64   65 1    
   126   64  130 1    
   127   65   66 1    
   128   65   69 1    
   129   65  131 1    
   130   66   67 am   BACKBONE|DICT|INTERRES
   131   66   68 2    
   132   67  132 1    
   133   67  133 1    
   134   69   70 1    
   135   69  134 1    
   136   69  135 1    
   137   70   71 1    
   138   71  136 1    
   139   71  137 1    
@<TRIPOS>SUBSTRUCTURE
     1 UNK         1 GROUP             0       ****    0 ROOT    
