@<TRIPOS>MOLECULE
3R137
137   139    1
SMALL
USER_CHARGES


@<TRIPOS>ATOM
      1 CA         25.4724   -3.2767    2.0652 C.3       0 UNK        -0.2020 
      2 C          26.2504   -4.1214    1.0592 C.2       0 UNK         0.4855 
      3 O          26.0731   -5.3374    1.0311 O.2       0 UNK        -0.5197 
      4 N          27.1216   -3.5423    0.2197 N.am      1 UNK        -0.4892 
      5 CA         27.4377   -2.1091    0.0988 C.3       1 UNK         0.0835 
      6 C6         28.6948   -1.8672   -0.7705 C.3       12 UNK        -0.0855 
      7 S7         30.1608   -2.7676   -0.1697 S.3       12 UNK        -0.2931 
      8 C8         31.4069   -2.2486   -1.4006 C.3       12 UNK         0.0378 
      9 C9         31.3150   -2.8984   -2.7857 C.ar      12 UNK        -0.0802 
     10 C10        32.2852   -2.5493   -3.7301 C.ar      12 UNK        -0.0944 
     11 C11        32.2908   -3.1259   -5.0022 C.ar      12 UNK        -0.0787 
     12 C12        31.3003   -4.0512   -5.3416 C.ar      12 UNK        -0.0862 
     13 C13        30.3175   -4.4128   -4.4153 C.ar      12 UNK        -0.0733 
     14 C14        30.3340   -3.8375   -3.1404 C.ar      12 UNK        -0.0832 
     15 C15        29.2889   -5.4854   -4.7596 C.3       12 UNK         0.0240 
     16 S16        28.3387   -5.1242   -6.2723 S.3       12 UNK        -0.2522 
     17 C17        27.1005   -3.9224   -5.6825 C.3       12 UNK        -0.0967 
     18 CA         26.7866   -2.8533   -6.7631 C.3       5 UNK         0.0660 
     19 N          25.4774   -2.2405   -6.5685 N.am      5 UNK        -0.4015 
     20 C          24.5233   -2.1585   -7.5069 C.2       4 UNK         0.4946 
     21 O          24.5735   -2.7422   -8.5902 O.2       4 UNK        -0.5353 
     22 CA         23.2974   -1.2702   -7.2102 C.3       4 UNK         0.0277 
     23 CB         22.0670   -2.1400   -6.9029 C.3       4 UNK        -0.1981 
     24 N          23.4871   -0.3143   -6.1159 N.am      4 UNK        -0.4209 
     25 C          24.4090    0.6585   -6.0748 C.2       3 UNK         0.4942 
     26 O          25.1903    0.9046   -6.9924 O.2       3 UNK        -0.5208 
     27 CA         24.5417    1.4218   -4.7454 C.3       3 UNK         0.0250 
     28 CB         23.6375    2.6644   -4.7442 C.3       3 UNK        -0.1990 
     29 N          24.2411    0.5956   -3.5694 N.am      3 UNK        -0.4232 
     30 C          24.8873   -0.5298   -3.2324 C.2       2 UNK         0.4993 
     31 O          25.8282   -1.0068   -3.8775 O.2       2 UNK        -0.5286 
     32 CA         24.3322   -1.2953   -2.0232 C.3       2 UNK         0.0209 
     33 CB         23.3399   -2.3724   -2.4913 C.3       2 UNK        -0.1931 
     34 N          25.4120   -1.9363   -1.2780 N.am      2 UNK        -0.4546 
     35 C          26.2701   -1.2863   -0.4812 C.2       1 UNK         0.5154 
     36 O          26.1712   -0.0912   -0.2003 O.2       1 UNK        -0.5181 
     37 C          27.8441   -1.7389   -6.8275 C.2       5 UNK         0.5014 
     38 O          28.4255   -1.5193   -7.8903 O.2       5 UNK        -0.5248 
     39 N          28.0697   -1.0546   -5.6964 N.am      6 UNK        -0.4434 
     40 CA         29.2131   -0.1663   -5.4847 C.3       6 UNK         0.0363 
     41 CB         29.2979    0.2251   -4.0019 C.3       6 UNK        -0.1936 
     42 C          29.2212    1.0791   -6.3805 C.2       6 UNK         0.5081 
     43 O          30.2431    1.3660   -7.0017 O.2       6 UNK        -0.5248 
     44 N          28.0947    1.8006   -6.4413 N.am      7 UNK        -0.4718 
     45 CA         27.9691    3.0125   -7.2569 C.3       7 UNK         0.0273 
     46 CB         26.7903    3.8712   -6.7721 C.3       7 UNK        -0.1935 
     47 C          27.8384    2.6784   -8.7493 C.2       7 UNK         0.5018 
     48 O          28.4339    3.3715   -9.5732 O.2       7 UNK        -0.5186 
     49 N          27.1033    1.6017   -9.0625 N.am      8 UNK        -0.4240 
     50 CA         26.9135    1.0691  -10.4137 C.3       8 UNK         0.0235 
     51 CB         25.9187   -0.1001  -10.3674 C.3       8 UNK        -0.2000 
     52 C          28.2278    0.6393  -11.0884 C.2       8 UNK         0.4941 
     53 O          28.4430    0.9748  -12.2537 O.2       8 UNK        -0.5273 
     54 N          29.0919   -0.0650  -10.3438 N.am      9 UNK        -0.4262 
     55 CA         30.4260   -0.4734  -10.7950 C.3       9 UNK         0.0264 
     56 CB         30.8346   -1.7513  -10.0457 C.3       9 UNK        -0.1955 
     57 C          31.4952    0.6270  -10.6353 C.2       9 UNK         0.5031 
     58 O          32.6128    0.4359  -11.1176 O.2       9 UNK        -0.5390 
     59 N          31.1465    1.7433   -9.9759 N.am      10 UNK        -0.4204 
     60 CA         31.9920    2.8996   -9.6499 C.3       10 UNK         0.0237 
     61 CB         32.3981    3.6638  -10.9282 C.3       10 UNK        -0.1985 
     62 C          33.1906    2.5252   -8.7549 C.2       10 UNK         0.4970 
     63 O          34.3210    2.9407   -9.0193 O.2       10 UNK        -0.4914 
     64 N          32.9131    1.7311   -7.7166 N.am      11 UNK        -0.4285 
     65 CA         33.8781    1.2606   -6.7166 C.3       11 UNK         0.1007 
     66 C          34.3328    2.3923   -5.7562 C.2       11 UNK         0.5703 
     67 N          35.5496    2.3077   -5.2352 N.am      11 UNK        -0.7361 
     68 O          33.5879    3.3221   -5.4496 O.2       11 UNK        -0.4986 
     69 C69        33.3134    0.0520   -5.9262 C.3       12 UNK        -0.0947 
     70 S70        32.9461   -1.3565   -7.0263 S.3       12 UNK        -0.2240 
     71 C71        33.3903   -2.7838   -5.9959 C.3       12 UNK         0.0194 
     72 H72        26.1188   -2.5730    2.5877 H         1 UNK         0.0906 
     73 H73        24.6741   -2.7247    1.5704 H         1 UNK         0.0906 
     74 H74        25.0135   -3.9155    2.8196 H         1 UNK         0.0906 
     75 H75        27.6521   -4.1425   -0.3951 H         1 UNK         0.3140 
     76 H76        27.6473   -1.7185    1.0964 H         1 UNK         0.1085 
     77 H77        28.5003   -2.1547   -1.8050 H         1 UNK         0.0836 
     78 H78        28.9415   -0.8032   -0.7915 H         1 UNK         0.0836 
     79 H79        32.3905   -2.4730   -0.9851 H         1 UNK         0.0731 
     80 H80        31.3637   -1.1639   -1.5105 H         1 UNK         0.0731 
     81 H81        33.0555   -1.8374   -3.4664 H         1 UNK         0.1312 
     82 H82        31.3050   -4.5068   -6.3225 H         1 UNK         0.1406 
     83 H83        29.5906   -4.1502   -2.4228 H         1 UNK         0.1631 
     84 H84        28.5948   -5.6493   -3.9338 H         1 UNK         0.0717 
     85 H85        29.8162   -6.4293   -4.9035 H         1 UNK         0.0717 
     86 H86        26.1976   -4.4908   -5.4530 H         1 UNK         0.0934 
     87 H87        27.4151   -3.4776   -4.7365 H         1 UNK         0.0934 
     88 H88        26.8037   -3.3527   -7.7345 H         1 UNK         0.0739 
     89 H89        25.3630   -1.7177   -5.7070 H         1 UNK         0.3093 
     90 H90        23.0958   -0.6938   -8.1155 H         1 UNK         0.0818 
     91 H91        21.1693   -1.5329   -6.7846 H         1 UNK         0.0819 
     92 H92        21.8732   -2.8435   -7.7141 H         1 UNK         0.0819 
     93 H93        22.2026   -2.7240   -5.9915 H         1 UNK         0.0819 
     94 H94        22.8935   -0.4336   -5.3085 H         1 UNK         0.3041 
     95 H95        25.5784    1.7519   -4.6576 H         1 UNK         0.0784 
     96 H96        23.8368    3.2984   -5.6090 H         1 UNK         0.0793 
     97 H97        22.5806    2.3967   -4.7766 H         1 UNK         0.0793 
     98 H98        23.8027    3.2739   -3.8555 H         1 UNK         0.0793 
     99 H99        23.4765    0.9090   -2.9879 H         1 UNK         0.3024 
    100 H100       23.8149   -0.5980   -1.3598 H         1 UNK         0.1171 
    101 H101       22.4949   -1.9269   -3.0179 H         1 UNK         0.0786 
    102 H102       23.8076   -3.0867   -3.1708 H         1 UNK         0.0786 
    103 H103       22.9338   -2.9305   -1.6473 H         1 UNK         0.0786 
    104 H104       25.5878   -2.9111   -1.4739 H         1 UNK         0.2977 
    105 H105       27.4595   -1.2088   -4.8982 H         1 UNK         0.3127 
    106 H106       30.1111   -0.7397   -5.7268 H         1 UNK         0.0770 
    107 H107       28.3838    0.7081   -3.6543 H         1 UNK         0.0814 
    108 H108       30.1244    0.9148   -3.8250 H         1 UNK         0.0814 
    109 H109       29.4745   -0.6506   -3.3802 H         1 UNK         0.0814 
    110 H110       27.2653    1.4615   -5.9760 H         1 UNK         0.2983 
    111 H111       28.8797    3.6032   -7.1297 H         1 UNK         0.0947 
    112 H112       26.7861    4.8367   -7.2795 H         1 UNK         0.0806 
    113 H113       26.8512    4.0686   -5.7018 H         1 UNK         0.0806 
    114 H114       25.8296    3.4016   -6.9768 H         1 UNK         0.0806 
    115 H115       26.5980    1.1403   -8.3106 H         1 UNK         0.3000 
    116 H116       26.4762    1.8661  -11.0186 H         1 UNK         0.0850 
    117 H117       25.7201   -0.4855  -11.3683 H         1 UNK         0.0810 
    118 H118       24.9633    0.2061   -9.9409 H         1 UNK         0.0810 
    119 H119       26.3016   -0.9279   -9.7694 H         1 UNK         0.0810 
    120 H120       28.8207   -0.3609   -9.4078 H         1 UNK         0.3040 
    121 H121       30.3796   -0.7159  -11.8588 H         1 UNK         0.0766 
    122 H122       30.8513   -1.5903   -8.9686 H         1 UNK         0.0812 
    123 H123       31.8289   -2.0871  -10.3428 H         1 UNK         0.0812 
    124 H124       30.1409   -2.5676  -10.2469 H         1 UNK         0.0812 
    125 H125       30.2028    1.7898   -9.6147 H         1 UNK         0.3205 
    126 H126       31.3688    3.5678   -9.0535 H         1 UNK         0.0754 
    127 H127       32.9241    4.5866  -10.6806 H         1 UNK         0.0769 
    128 H128       31.5236    3.9383  -11.5182 H         1 UNK         0.0769 
    129 H129       33.0594    3.0728  -11.5625 H         1 UNK         0.0769 
    130 H130       31.9403    1.4879   -7.5347 H         1 UNK         0.2981 
    131 H131       34.7627    0.9218   -7.2598 H         1 UNK         0.0541 
    132 H132       36.1667    1.5460   -5.4705 H         1 UNK         0.3459 
    133 H133       35.8602    3.0250   -4.5987 H         1 UNK         0.3459 
    134 H134       32.4018    0.3259   -5.3923 H         1 UNK         0.0612 
    135 H135       34.0303   -0.2696   -5.1692 H         1 UNK         0.0612 
    136 H136       34.3329   -2.5960   -5.4798 H         1 UNK         0.0624 
    137 H137       33.5719   -3.6373   -6.6507 H         1 UNK         0.0624 
@<TRIPOS>BOND
     1    1    2 1    
     2    1   72 1    
     3    1   73 1    
     4    1   74 1    
     5    2    3 2    
     6    2    4 am   BACKBONE|DICT|INTERRES
     7    4    5 1    
     8    4   75 1    
     9    5    6 1    
    10    5   35 1    
    11    5   76 1    
    12    6    7 1    
    13    6   77 1    
    14    6   78 1    
    15    7    8 1    
    16    8    9 1    
    17    8   79 1    
    18    8   80 1    
    19    9   10 ar   
    20    9   14 ar   
    21   10   11 ar   
    22   10   81 1    
    23   11   12 ar   
    24   11   71 1    
    25   12   13 ar   
    26   12   82 1    
    27   13   14 ar   
    28   13   15 1    
    29   14   83 1    
    30   15   16 1    
    31   15   84 1    
    32   15   85 1    
    33   16   17 1    
    34   17   18 1    
    35   17   86 1    
    36   17   87 1    
    37   18   19 1    
    38   18   37 1    
    39   18   88 1    
    40   19   20 am   BACKBONE|DICT|INTERRES
    41   19   89 1    
    42   20   21 2    
    43   20   22 1    
    44   22   23 1    
    45   22   24 1    
    46   22   90 1    
    47   23   91 1    
    48   23   92 1    
    49   23   93 1    
    50   24   25 am   BACKBONE|DICT|INTERRES
    51   24   94 1    
    52   25   26 2    
    53   25   27 1    
    54   27   28 1    
    55   27   29 1    
    56   27   95 1    
    57   28   96 1    
    58   28   97 1    
    59   28   98 1    
    60   29   30 am   BACKBONE|DICT|INTERRES
    61   29   99 1    
    62   30   31 2    
    63   30   32 1    
    64   32   33 1    
    65   32   34 1    
    66   32  100 1    
    67   33  101 1    
    68   33  102 1    
    69   33  103 1    
    70   34   35 am   BACKBONE|DICT|INTERRES
    71   34  104 1    
    72   35   36 2    
    73   37   38 2    
    74   37   39 am   BACKBONE|DICT|INTERRES
    75   39   40 1    
    76   39  105 1    
    77   40   41 1    
    78   40   42 1    
    79   40  106 1    
    80   41  107 1    
    81   41  108 1    
    82   41  109 1    
    83   42   43 2    
    84   42   44 am   BACKBONE|DICT|INTERRES
    85   44   45 1    
    86   44  110 1    
    87   45   46 1    
    88   45   47 1    
    89   45  111 1    
    90   46  112 1    
    91   46  113 1    
    92   46  114 1    
    93   47   48 2    
    94   47   49 am   BACKBONE|DICT|INTERRES
    95   49   50 1    
    96   49  115 1    
    97   50   51 1    
    98   50   52 1    
    99   50  116 1    
   100   51  117 1    
   101   51  118 1    
   102   51  119 1    
   103   52   53 2    
   104   52   54 am   BACKBONE|DICT|INTERRES
   105   54   55 1    
   106   54  120 1    
   107   55   56 1    
   108   55   57 1    
   109   55  121 1    
   110   56  122 1    
   111   56  123 1    
   112   56  124 1    
   113   57   58 2    
   114   57   59 am   BACKBONE|DICT|INTERRES
   115   59   60 1    
   116   59  125 1    
   117   60   61 1    
   118   60   62 1    
   119   60  126 1    
   120   61  127 1    
   121   61  128 1    
   122   61  129 1    
   123   62   63 2    
   124   62   64 am   BACKBONE|DICT|INTERRES
   125   64   65 1    
   126   64  130 1    
   127   65   66 1    
   128   65   69 1    
   129   65  131 1    
   130   66   67 am   BACKBONE|DICT|INTERRES
   131   66   68 2    
   132   67  132 1    
   133   67  133 1    
   134   69   70 1    
   135   69  134 1    
   136   69  135 1    
   137   70   71 1    
   138   71  136 1    
   139   71  137 1    
@<TRIPOS>SUBSTRUCTURE
     1 UNK         1 GROUP             0       ****    0 ROOT    
