@<TRIPOS>MOLECULE
3R137
137   139    1
SMALL
USER_CHARGES


@<TRIPOS>ATOM
      1 CA         26.0486   -4.5380   -0.9480 C.3       0 UNK        -0.2020 
      2 C          26.2246   -4.2545    0.5419 C.2       0 UNK         0.4855 
      3 O          25.8249   -5.0849    1.3545 O.2       0 UNK        -0.5197 
      4 N          26.8012   -3.1190    0.9682 N.am      1 UNK        -0.4892 
      5 CA         27.3312   -1.9797    0.1967 C.3       1 UNK         0.0835 
      6 C6         28.3788   -2.3859   -0.8819 C.3       12 UNK        -0.0855 
      7 S7         29.8533   -1.3137   -0.8916 S.3       12 UNK        -0.2931 
      8 C8         31.0955   -2.4397   -1.6050 C.3       12 UNK         0.0378 
      9 C9         30.8942   -2.6293   -3.1024 C.ar      12 UNK        -0.0802 
     10 C10        31.5859   -1.8197   -4.0074 C.ar      12 UNK        -0.0944 
     11 C11        31.4177   -1.9921   -5.3835 C.ar      12 UNK        -0.0787 
     12 C12        30.5529   -2.9835   -5.8559 C.ar      12 UNK        -0.0862 
     13 C13        29.8410   -3.7882   -4.9618 C.ar      12 UNK        -0.0733 
     14 C14        30.0253   -3.6136   -3.5863 C.ar      12 UNK        -0.0832 
     15 C15        28.8808   -4.8531   -5.4736 C.3       12 UNK         0.0240 
     16 S16        27.2220   -4.1753   -5.8143 S.3       12 UNK        -0.2522 
     17 C17        27.3554   -3.6806   -7.5715 C.3       12 UNK        -0.0967 
     18 CA         26.9378   -2.2188   -7.8688 C.3       5 UNK         0.0660 
     19 N          25.5611   -1.9266   -7.4573 N.am      5 UNK        -0.4015 
     20 C          24.9174   -0.7709   -7.6801 C.2       4 UNK         0.4946 
     21 O          25.4000    0.1632   -8.3217 O.2       4 UNK        -0.5353 
     22 CA         23.5230   -0.5928   -7.0553 C.3       4 UNK         0.0277 
     23 CB         22.4355   -0.8061   -8.1203 C.3       4 UNK        -0.1981 
     24 N          23.2368   -1.4422   -5.8919 N.am      4 UNK        -0.4209 
     25 C          23.9413   -1.4788   -4.7516 C.2       3 UNK         0.4942 
     26 O          25.0080   -0.8842   -4.5782 O.2       3 UNK        -0.5208 
     27 CA         23.3740   -2.3856   -3.6467 C.3       3 UNK         0.0250 
     28 CB         23.8789   -3.8266   -3.8273 C.3       3 UNK        -0.1990 
     29 N          23.7273   -1.9181   -2.3052 N.am      3 UNK        -0.4232 
     30 C          23.2855   -0.7882   -1.7353 C.2       2 UNK         0.4993 
     31 O          22.4724   -0.0291   -2.2653 O.2       2 UNK        -0.5286 
     32 CA         23.8047   -0.4575   -0.3216 C.3       2 UNK         0.0209 
     33 CB         22.6895   -0.6553    0.7195 C.3       2 UNK        -0.1931 
     34 N          24.9747   -1.2456    0.0860 N.am      2 UNK        -0.4546 
     35 C          26.2290   -1.0337   -0.3407 C.2       1 UNK         0.5154 
     36 O          26.5245   -0.1273   -1.1178 O.2       1 UNK        -0.5181 
     37 C          27.9622   -1.1992   -7.3305 C.2       5 UNK         0.5014 
     38 O          28.9021   -0.8654   -8.0532 O.2       5 UNK        -0.5248 
     39 N          27.7337   -0.6781   -6.1148 N.am      6 UNK        -0.4434 
     40 CA         28.5643    0.3507   -5.4867 C.3       6 UNK         0.0363 
     41 CB         28.1360    0.5300   -4.0239 C.3       6 UNK        -0.1936 
     42 C          28.5510    1.6943   -6.2345 C.2       6 UNK         0.5081 
     43 O          29.5381    2.4255   -6.1668 O.2       6 UNK        -0.5248 
     44 N          27.4560    1.9875   -6.9480 N.am      7 UNK        -0.4718 
     45 CA         27.3359    3.1484   -7.8266 C.3       7 UNK         0.0273 
     46 CB         25.8837    3.6544   -7.8130 C.3       7 UNK        -0.1935 
     47 C          27.7806    2.8058   -9.2558 C.2       7 UNK         0.5018 
     48 O          28.5165    3.5865   -9.8590 O.2       7 UNK        -0.5186 
     49 N          27.3172    1.6586   -9.7742 N.am      8 UNK        -0.4240 
     50 CA         27.5172    1.2297  -11.1596 C.3       8 UNK         0.0235 
     51 CB         26.5787    0.0554  -11.4809 C.3       8 UNK        -0.2000 
     52 C          28.9724    0.8750  -11.5014 C.2       8 UNK         0.4941 
     53 O          29.4668    1.3273  -12.5351 O.2       8 UNK        -0.5273 
     54 N          29.6299    0.0741  -10.6500 N.am      9 UNK        -0.4262 
     55 CA         31.0221   -0.3434  -10.8479 C.3       9 UNK         0.0264 
     56 CB         31.2228   -1.7677  -10.3030 C.3       9 UNK        -0.1955 
     57 C          32.0255    0.6369  -10.2197 C.2       9 UNK         0.5031 
     58 O          33.1886    0.6347  -10.6267 O.2       9 UNK        -0.5390 
     59 N          31.5721    1.4484   -9.2508 N.am      10 UNK        -0.4204 
     60 CA         32.2839    2.5036   -8.5099 C.3       10 UNK         0.0237 
     61 CB         32.7679    3.6222   -9.4529 C.3       10 UNK        -0.1985 
     62 C          33.4265    2.0117   -7.6003 C.2       10 UNK         0.4970 
     63 O          33.5070    2.4519   -6.4536 O.2       10 UNK        -0.4914 
     64 N          34.2709    1.1100   -8.1141 N.am      11 UNK        -0.4285 
     65 CA         35.3856    0.4357   -7.4246 C.3       11 UNK         0.1007 
     66 C          36.5481    1.3754   -6.9785 C.2       11 UNK         0.5703 
     67 N          36.6701    2.5790   -7.5263 N.am      11 UNK        -0.7361 
     68 O          37.3756    1.0006   -6.1505 O.2       11 UNK        -0.4986 
     69 C69        34.9066   -0.5194   -6.2914 C.3       12 UNK        -0.0947 
     70 S70        33.7252   -1.7781   -6.8890 S.3       12 UNK        -0.2240 
     71 C71        32.1336   -1.0754   -6.3591 C.3       12 UNK         0.0194 
     72 H72        25.1399   -5.1165   -1.1129 H         1 UNK         0.0906 
     73 H73        25.9734   -3.6362   -1.5481 H         1 UNK         0.0906 
     74 H74        26.8878   -5.1266   -1.3176 H         1 UNK         0.0906 
     75 H75        26.8899   -3.0024    1.9694 H         1 UNK         0.3140 
     76 H76        27.8478   -1.3811    0.9492 H         1 UNK         0.1085 
     77 H77        28.7276   -3.4018   -0.6934 H         1 UNK         0.0836 
     78 H78        27.9495   -2.3988   -1.8856 H         1 UNK         0.0836 
     79 H79        31.0697   -3.4022   -1.0918 H         1 UNK         0.0731 
     80 H80        32.0875   -2.0271   -1.4149 H         1 UNK         0.0731 
     81 H81        32.2510   -1.0496   -3.6410 H         1 UNK         0.1312 
     82 H82        30.4205   -3.1110   -6.9211 H         1 UNK         0.1406 
     83 H83        29.4863   -4.2425   -2.8917 H         1 UNK         0.1631 
     84 H84        28.7795   -5.6445   -4.7294 H         1 UNK         0.0717 
     85 H85        29.2856   -5.3361   -6.3641 H         1 UNK         0.0717 
     86 H86        28.3666   -3.8617   -7.9395 H         1 UNK         0.0934 
     87 H87        26.7217   -4.3571   -8.1471 H         1 UNK         0.0934 
     88 H88        26.9520   -2.1079   -8.9538 H         1 UNK         0.0739 
     89 H89        25.1048   -2.6320   -6.8984 H         1 UNK         0.3093 
     90 H90        23.4656    0.4430   -6.7143 H         1 UNK         0.0818 
     91 H91        21.4459   -0.5614   -7.7340 H         1 UNK         0.0819 
     92 H92        22.6073   -0.1669   -8.9879 H         1 UNK         0.0819 
     93 H93        22.4141   -1.8373   -8.4753 H         1 UNK         0.0819 
     94 H94        22.3900   -1.9906   -5.9451 H         1 UNK         0.3041 
     95 H95        22.2843   -2.3847   -3.7210 H         1 UNK         0.0784 
     96 H96        23.5872   -4.2270   -4.7991 H         1 UNK         0.0793 
     97 H97        24.9662   -3.8835   -3.7692 H         1 UNK         0.0793 
     98 H98        23.4644   -4.4922   -3.0700 H         1 UNK         0.0793 
     99 H99        24.4072   -2.4607   -1.7994 H         1 UNK         0.3024 
    100 H100       24.0847    0.5987   -0.3268 H         1 UNK         0.1171 
    101 H101       23.0160   -0.3509    1.7141 H         1 UNK         0.0786 
    102 H102       21.8123   -0.0554    0.4724 H         1 UNK         0.0786 
    103 H103       22.3672   -1.6959    0.7740 H         1 UNK         0.0786 
    104 H104       24.8167   -1.9917    0.7490 H         1 UNK         0.2977 
    105 H105       26.9129   -0.9763   -5.5978 H         1 UNK         0.3127 
    106 H106       29.5938   -0.0037   -5.4929 H         1 UNK         0.0770 
    107 H107       27.1016    0.8659   -3.9414 H         1 UNK         0.0814 
    108 H108       28.2283   -0.4042   -3.4697 H         1 UNK         0.0814 
    109 H109       28.7622    1.2661   -3.5186 H         1 UNK         0.0814 
    110 H110       26.7082    1.3061   -6.9905 H         1 UNK         0.2983 
    111 H111       27.9744    3.9564   -7.4617 H         1 UNK         0.0947 
    112 H112       25.5788    3.9511   -6.8094 H         1 UNK         0.0806 
    113 H113       25.1823    2.8967   -8.1645 H         1 UNK         0.0806 
    114 H114       25.7700    4.5274   -8.4571 H         1 UNK         0.0806 
    115 H115       26.6853    1.0917   -9.2108 H         1 UNK         0.3000 
    116 H116       27.2293    2.0663  -11.8003 H         1 UNK         0.0850 
    117 H117       26.6691   -0.2413  -12.5267 H         1 UNK         0.0810 
    118 H118       25.5357    0.3222  -11.3083 H         1 UNK         0.0810 
    119 H119       26.8035   -0.8205  -10.8737 H         1 UNK         0.0810 
    120 H120       29.1743   -0.2500   -9.7986 H         1 UNK         0.3040 
    121 H121       31.2405   -0.3765  -11.9176 H         1 UNK         0.0766 
    122 H122       31.0096   -1.8365   -9.2383 H         1 UNK         0.0812 
    123 H123       32.2518   -2.0996  -10.4483 H         1 UNK         0.0812 
    124 H124       30.5776   -2.4802  -10.8168 H         1 UNK         0.0812 
    125 H125       30.6046    1.3284   -8.9854 H         1 UNK         0.3205 
    126 H126       31.5359    2.9453   -7.8502 H         1 UNK         0.0754 
    127 H127       33.2100    4.4436   -8.8874 H         1 UNK         0.0769 
    128 H128       31.9400    4.0353  -10.0297 H         1 UNK         0.0769 
    129 H129       33.5226    3.2692  -10.1562 H         1 UNK         0.0769 
    130 H130       34.1087    0.8302   -9.0795 H         1 UNK         0.2981 
    131 H131       35.8408   -0.1934   -8.1900 H         1 UNK         0.0541 
    132 H132       36.0071    2.8948   -8.2154 H         1 UNK         0.3459 
    133 H133       37.4302    3.1766   -7.2421 H         1 UNK         0.3459 
    134 H134       34.4794    0.0419   -5.4594 H         1 UNK         0.0612 
    135 H135       35.7551   -1.0643   -5.8747 H         1 UNK         0.0612 
    136 H136       31.5111   -0.9025   -7.2356 H         1 UNK         0.0624 
    137 H137       32.2698   -0.0943   -5.9041 H         1 UNK         0.0624 
@<TRIPOS>BOND
     1    1    2 1    
     2    1   72 1    
     3    1   73 1    
     4    1   74 1    
     5    2    3 2    
     6    2    4 am   BACKBONE|DICT|INTERRES
     7    4    5 1    
     8    4   75 1    
     9    5    6 1    
    10    5   35 1    
    11    5   76 1    
    12    6    7 1    
    13    6   77 1    
    14    6   78 1    
    15    7    8 1    
    16    8    9 1    
    17    8   79 1    
    18    8   80 1    
    19    9   10 ar   
    20    9   14 ar   
    21   10   11 ar   
    22   10   81 1    
    23   11   12 ar   
    24   11   71 1    
    25   12   13 ar   
    26   12   82 1    
    27   13   14 ar   
    28   13   15 1    
    29   14   83 1    
    30   15   16 1    
    31   15   84 1    
    32   15   85 1    
    33   16   17 1    
    34   17   18 1    
    35   17   86 1    
    36   17   87 1    
    37   18   19 1    
    38   18   37 1    
    39   18   88 1    
    40   19   20 am   BACKBONE|DICT|INTERRES
    41   19   89 1    
    42   20   21 2    
    43   20   22 1    
    44   22   23 1    
    45   22   24 1    
    46   22   90 1    
    47   23   91 1    
    48   23   92 1    
    49   23   93 1    
    50   24   25 am   BACKBONE|DICT|INTERRES
    51   24   94 1    
    52   25   26 2    
    53   25   27 1    
    54   27   28 1    
    55   27   29 1    
    56   27   95 1    
    57   28   96 1    
    58   28   97 1    
    59   28   98 1    
    60   29   30 am   BACKBONE|DICT|INTERRES
    61   29   99 1    
    62   30   31 2    
    63   30   32 1    
    64   32   33 1    
    65   32   34 1    
    66   32  100 1    
    67   33  101 1    
    68   33  102 1    
    69   33  103 1    
    70   34   35 am   BACKBONE|DICT|INTERRES
    71   34  104 1    
    72   35   36 2    
    73   37   38 2    
    74   37   39 am   BACKBONE|DICT|INTERRES
    75   39   40 1    
    76   39  105 1    
    77   40   41 1    
    78   40   42 1    
    79   40  106 1    
    80   41  107 1    
    81   41  108 1    
    82   41  109 1    
    83   42   43 2    
    84   42   44 am   BACKBONE|DICT|INTERRES
    85   44   45 1    
    86   44  110 1    
    87   45   46 1    
    88   45   47 1    
    89   45  111 1    
    90   46  112 1    
    91   46  113 1    
    92   46  114 1    
    93   47   48 2    
    94   47   49 am   BACKBONE|DICT|INTERRES
    95   49   50 1    
    96   49  115 1    
    97   50   51 1    
    98   50   52 1    
    99   50  116 1    
   100   51  117 1    
   101   51  118 1    
   102   51  119 1    
   103   52   53 2    
   104   52   54 am   BACKBONE|DICT|INTERRES
   105   54   55 1    
   106   54  120 1    
   107   55   56 1    
   108   55   57 1    
   109   55  121 1    
   110   56  122 1    
   111   56  123 1    
   112   56  124 1    
   113   57   58 2    
   114   57   59 am   BACKBONE|DICT|INTERRES
   115   59   60 1    
   116   59  125 1    
   117   60   61 1    
   118   60   62 1    
   119   60  126 1    
   120   61  127 1    
   121   61  128 1    
   122   61  129 1    
   123   62   63 2    
   124   62   64 am   BACKBONE|DICT|INTERRES
   125   64   65 1    
   126   64  130 1    
   127   65   66 1    
   128   65   69 1    
   129   65  131 1    
   130   66   67 am   BACKBONE|DICT|INTERRES
   131   66   68 2    
   132   67  132 1    
   133   67  133 1    
   134   69   70 1    
   135   69  134 1    
   136   69  135 1    
   137   70   71 1    
   138   71  136 1    
   139   71  137 1    
@<TRIPOS>SUBSTRUCTURE
     1 UNK         1 GROUP             0       ****    0 ROOT    
