@<TRIPOS>MOLECULE
3R137
137   139    1
SMALL
USER_CHARGES


@<TRIPOS>ATOM
      1 CA         25.2082   -7.5951   -1.8546 C.3       0 UNK        -0.2020 
      2 C          25.2743   -6.7078   -0.6207 C.2       0 UNK         0.4855 
      3 O          24.4700   -6.8711    0.2969 O.2       0 UNK        -0.5197 
      4 N          26.2264   -5.7668   -0.5917 N.am      1 UNK        -0.4892 
      5 CA         26.4240   -4.8030    0.4994 C.3       1 UNK         0.0835 
      6 C6         27.8534   -4.1997    0.4739 C.3       12 UNK        -0.0855 
      7 S7         28.2556   -3.3355   -1.0879 S.3       12 UNK        -0.2931 
      8 C8         29.6097   -4.3577   -1.7332 C.3       12 UNK         0.0378 
      9 C9         29.9156   -3.9929   -3.1759 C.ar      12 UNK        -0.0802 
     10 C10        30.9603   -3.1164   -3.4855 C.ar      12 UNK        -0.0944 
     11 C11        31.2540   -2.8093   -4.8184 C.ar      12 UNK        -0.0787 
     12 C12        30.4943   -3.3827   -5.8415 C.ar      12 UNK        -0.0862 
     13 C13        29.4265   -4.2325   -5.5398 C.ar      12 UNK        -0.0733 
     14 C14        29.1476   -4.5407   -4.2065 C.ar      12 UNK        -0.0832 
     15 C15        28.5638   -4.8170   -6.6458 C.3       12 UNK         0.0240 
     16 S16        27.0561   -3.8280   -6.8974 S.3       12 UNK        -0.2522 
     17 C17        27.7177   -2.3735   -7.7759 C.3       12 UNK        -0.0967 
     18 CA         27.4139   -1.0279   -7.0650 C.3       5 UNK         0.0660 
     19 N          27.9378   -0.9601   -5.6904 N.am      5 UNK        -0.4015 
     20 C          27.4304   -0.1709   -4.7330 C.2       4 UNK         0.4946 
     21 O          26.4295    0.5322   -4.8989 O.2       4 UNK        -0.5353 
     22 CA         28.2103   -0.0479   -3.4208 C.3       4 UNK         0.0277 
     23 CB         29.1715    1.1576   -3.5167 C.3       4 UNK        -0.1981 
     24 N          27.2440    0.1449   -2.3404 N.am      4 UNK        -0.4209 
     25 C          27.4965    0.3130   -1.0382 C.2       3 UNK         0.4942 
     26 O          28.6249    0.3099   -0.5451 O.2       3 UNK        -0.5208 
     27 CA         26.2823    0.5215   -0.1149 C.3       3 UNK         0.0250 
     28 CB         25.5847    1.8714   -0.3803 C.3       3 UNK        -0.1990 
     29 N          25.3357   -0.6014   -0.1252 N.am      3 UNK        -0.4232 
     30 C          24.5442   -1.0337   -1.1170 C.2       2 UNK         0.4993 
     31 O          24.4516   -0.4810   -2.2144 O.2       2 UNK        -0.5286 
     32 CA         23.7636   -2.3342   -0.8389 C.3       2 UNK         0.0209 
     33 CB         22.8040   -2.7087   -1.9843 C.3       2 UNK        -0.1931 
     34 N          24.6840   -3.4508   -0.6119 N.am      2 UNK        -0.4546 
     35 C          25.3559   -3.6871    0.5241 C.2       1 UNK         0.5154 
     36 O          25.1913   -3.0264    1.5519 O.2       1 UNK        -0.5181 
     37 C          27.9219    0.1741   -7.8941 C.2       5 UNK         0.5014 
     38 O          28.4937   -0.0158   -8.9695 O.2       5 UNK        -0.5248 
     39 N          27.7278    1.3970   -7.3820 N.am      6 UNK        -0.4434 
     40 CA         28.2679    2.6500   -7.9214 C.3       6 UNK         0.0363 
     41 CB         27.9102    3.8031   -6.9716 C.3       6 UNK        -0.1936 
     42 C          27.8280    2.9760   -9.3600 C.2       6 UNK         0.5081 
     43 O          28.5607    3.6613  -10.0708 O.2       6 UNK        -0.5248 
     44 N          26.6672    2.4565   -9.7774 N.am      7 UNK        -0.4718 
     45 CA         26.1442    2.5815  -11.1392 C.3       7 UNK         0.0273 
     46 CB         24.6472    2.2298  -11.1286 C.3       7 UNK        -0.1935 
     47 C          26.8883    1.7203  -12.1797 C.2       7 UNK         0.5018 
     48 O          26.7530    1.9978  -13.3724 O.2       7 UNK        -0.5186 
     49 N          27.6257    0.6921  -11.7334 N.am      8 UNK        -0.4240 
     50 CA         28.3038   -0.2783  -12.5975 C.3       8 UNK         0.0235 
     51 CB         27.6708   -1.6665  -12.3955 C.3       8 UNK        -0.2000 
     52 C          29.8142   -0.3310  -12.3341 C.2       8 UNK         0.4941 
     53 O          30.5954   -0.2520  -13.2826 O.2       8 UNK        -0.5273 
     54 N          30.2015   -0.4813  -11.0616 N.am      9 UNK        -0.4262 
     55 CA         31.5879   -0.6578  -10.6254 C.3       9 UNK         0.0264 
     56 CB         31.5948   -1.5343   -9.3609 C.3       9 UNK        -0.1955 
     57 C          32.3130    0.6703  -10.3558 C.2       9 UNK         0.5031 
     58 O          33.5425    0.6689  -10.2896 O.2       9 UNK        -0.5390 
     59 N          31.5525    1.7625  -10.1731 N.am      10 UNK        -0.4204 
     60 CA         32.0096    3.1224   -9.8406 C.3       10 UNK         0.0237 
     61 CB         32.8461    3.7194  -10.9929 C.3       10 UNK        -0.1985 
     62 C          32.7191    3.2408   -8.4734 C.2       10 UNK         0.4970 
     63 O          33.4204    4.2257   -8.2376 O.2       10 UNK        -0.4914 
     64 N          32.5164    2.2531   -7.5925 N.am      11 UNK        -0.4285 
     65 CA         33.1143    2.1664   -6.2523 C.3       11 UNK         0.1007 
     66 C          32.4129    3.0242   -5.1570 C.2       11 UNK         0.5703 
     67 N          31.3175    3.7152   -5.4504 N.am      11 UNK        -0.7361 
     68 O          32.8843    3.0786   -4.0237 O.2       11 UNK        -0.4986 
     69 C69        33.3087    0.6871   -5.8263 C.3       12 UNK        -0.0947 
     70 S70        31.7600   -0.2731   -5.7676 S.3       12 UNK        -0.2240 
     71 C71        32.3934   -1.8629   -5.1592 C.3       12 UNK         0.0194 
     72 H72        24.2373   -7.4927   -2.3387 H         1 UNK         0.0906 
     73 H73        25.9785   -7.3416   -2.5828 H         1 UNK         0.0906 
     74 H74        25.3395   -8.6395   -1.5727 H         1 UNK         0.0906 
     75 H75        26.8610   -5.6689   -1.3715 H         1 UNK         0.3140 
     76 H76        26.3149   -5.3435    1.4426 H         1 UNK         0.1085 
     77 H77        27.9875   -3.4966    1.2986 H         1 UNK         0.0836 
     78 H78        28.5836   -4.9906    0.6524 H         1 UNK         0.0836 
     79 H79        30.4934   -4.2261   -1.1067 H         1 UNK         0.0731 
     80 H80        29.3398   -5.4132   -1.6715 H         1 UNK         0.0731 
     81 H81        31.5467   -2.6786   -2.6890 H         1 UNK         0.1312 
     82 H82        30.7301   -3.1516   -6.8709 H         1 UNK         0.1406 
     83 H83        28.3253   -5.2025   -3.9708 H         1 UNK         0.1631 
     84 H84        28.2759   -5.8368   -6.3864 H         1 UNK         0.0717 
     85 H85        29.1227   -4.8889   -7.5803 H         1 UNK         0.0717 
     86 H86        28.7888   -2.4883   -7.9415 H         1 UNK         0.0934 
     87 H87        27.2687   -2.3784   -8.7711 H         1 UNK         0.0934 
     88 H88        26.3266   -0.9331   -7.0230 H         1 UNK         0.0739 
     89 H89        28.7750   -1.4945   -5.5025 H         1 UNK         0.3093 
     90 H90        28.7704   -0.9680   -3.2425 H         1 UNK         0.0818 
     91 H91        29.9141    1.1442   -2.7193 H         1 UNK         0.0819 
     92 H92        29.7175    1.1639   -4.4586 H         1 UNK         0.0819 
     93 H93        28.6339    2.1047   -3.4598 H         1 UNK         0.0819 
     94 H94        26.2686    0.1306   -2.6357 H         1 UNK         0.3041 
     95 H95        26.6716    0.5590    0.9040 H         1 UNK         0.0784 
     96 H96        26.2900    2.6972   -0.2783 H         1 UNK         0.0793 
     97 H97        25.1641    1.9305   -1.3844 H         1 UNK         0.0793 
     98 H98        24.7773    2.0454    0.3309 H         1 UNK         0.0793 
     99 H99        25.3613   -1.1869    0.7044 H         1 UNK         0.3024 
    100 H100       23.1654   -2.1716    0.0609 H         1 UNK         0.1171 
    101 H101       22.0866   -1.9080   -2.1694 H         1 UNK         0.0786 
    102 H102       22.2320   -3.6054   -1.7448 H         1 UNK         0.0786 
    103 H103       23.3383   -2.8906   -2.9178 H         1 UNK         0.0786 
    104 H104       24.9133   -4.0190   -1.4142 H         1 UNK         0.2977 
    105 H105       27.2191    1.4522   -6.5040 H         1 UNK         0.3127 
    106 H106       29.3543    2.5476   -7.9367 H         1 UNK         0.0770 
    107 H107       26.8309    3.9412   -6.8958 H         1 UNK         0.0814 
    108 H108       28.3357    4.7451   -7.3210 H         1 UNK         0.0814 
    109 H109       28.2960    3.6265   -5.9673 H         1 UNK         0.0814 
    110 H110       26.1258    1.9084   -9.1246 H         1 UNK         0.2983 
    111 H111       26.2479    3.6234  -11.4511 H         1 UNK         0.0947 
    112 H112       24.2111    2.3466  -12.1219 H         1 UNK         0.0806 
    113 H113       24.0903    2.8816  -10.4552 H         1 UNK         0.0806 
    114 H114       24.4764    1.1982  -10.8179 H         1 UNK         0.0806 
    115 H115       27.7164    0.5566  -10.7322 H         1 UNK         0.3000 
    116 H116       28.1778   -0.0081  -13.6483 H         1 UNK         0.0850 
    117 H117       28.1669   -2.4167  -13.0129 H         1 UNK         0.0810 
    118 H118       26.6174   -1.6628  -12.6758 H         1 UNK         0.0810 
    119 H119       27.7384   -1.9987  -11.3588 H         1 UNK         0.0810 
    120 H120       29.4981   -0.4879  -10.3235 H         1 UNK         0.3040 
    121 H121       32.1470   -1.1823  -11.4035 H         1 UNK         0.0766 
    122 H122       32.6098   -1.6861   -8.9904 H         1 UNK         0.0812 
    123 H123       31.1729   -2.5193   -9.5607 H         1 UNK         0.0812 
    124 H124       31.0179   -1.0818   -8.5546 H         1 UNK         0.0812 
    125 H125       30.5526    1.6484  -10.2646 H         1 UNK         0.3205 
    126 H126       31.1114    3.7319   -9.7508 H         1 UNK         0.0754 
    127 H127       33.0510    4.7771  -10.8229 H         1 UNK         0.0769 
    128 H128       32.3196    3.6435  -11.9443 H         1 UNK         0.0769 
    129 H129       33.8077    3.2166  -11.1000 H         1 UNK         0.0769 
    130 H130       31.9250    1.4794   -7.8533 H         1 UNK         0.2981 
    131 H131       34.1175    2.5902   -6.3264 H         1 UNK         0.0541 
    132 H132       30.9445    3.7077   -6.3834 H         1 UNK         0.3459 
    133 H133       30.8857    4.2753   -4.7332 H         1 UNK         0.3459 
    134 H134       33.7991    0.6294   -4.8528 H         1 UNK         0.0612 
    135 H135       33.9829    0.1932   -6.5280 H         1 UNK         0.0612 
    136 H136       33.0322   -2.3128   -5.9206 H         1 UNK         0.0624 
    137 H137       33.0219   -1.6906   -4.2841 H         1 UNK         0.0624 
@<TRIPOS>BOND
     1    1    2 1    
     2    1   72 1    
     3    1   73 1    
     4    1   74 1    
     5    2    3 2    
     6    2    4 am   BACKBONE|DICT|INTERRES
     7    4    5 1    
     8    4   75 1    
     9    5    6 1    
    10    5   35 1    
    11    5   76 1    
    12    6    7 1    
    13    6   77 1    
    14    6   78 1    
    15    7    8 1    
    16    8    9 1    
    17    8   79 1    
    18    8   80 1    
    19    9   10 ar   
    20    9   14 ar   
    21   10   11 ar   
    22   10   81 1    
    23   11   12 ar   
    24   11   71 1    
    25   12   13 ar   
    26   12   82 1    
    27   13   14 ar   
    28   13   15 1    
    29   14   83 1    
    30   15   16 1    
    31   15   84 1    
    32   15   85 1    
    33   16   17 1    
    34   17   18 1    
    35   17   86 1    
    36   17   87 1    
    37   18   19 1    
    38   18   37 1    
    39   18   88 1    
    40   19   20 am   BACKBONE|DICT|INTERRES
    41   19   89 1    
    42   20   21 2    
    43   20   22 1    
    44   22   23 1    
    45   22   24 1    
    46   22   90 1    
    47   23   91 1    
    48   23   92 1    
    49   23   93 1    
    50   24   25 am   BACKBONE|DICT|INTERRES
    51   24   94 1    
    52   25   26 2    
    53   25   27 1    
    54   27   28 1    
    55   27   29 1    
    56   27   95 1    
    57   28   96 1    
    58   28   97 1    
    59   28   98 1    
    60   29   30 am   BACKBONE|DICT|INTERRES
    61   29   99 1    
    62   30   31 2    
    63   30   32 1    
    64   32   33 1    
    65   32   34 1    
    66   32  100 1    
    67   33  101 1    
    68   33  102 1    
    69   33  103 1    
    70   34   35 am   BACKBONE|DICT|INTERRES
    71   34  104 1    
    72   35   36 2    
    73   37   38 2    
    74   37   39 am   BACKBONE|DICT|INTERRES
    75   39   40 1    
    76   39  105 1    
    77   40   41 1    
    78   40   42 1    
    79   40  106 1    
    80   41  107 1    
    81   41  108 1    
    82   41  109 1    
    83   42   43 2    
    84   42   44 am   BACKBONE|DICT|INTERRES
    85   44   45 1    
    86   44  110 1    
    87   45   46 1    
    88   45   47 1    
    89   45  111 1    
    90   46  112 1    
    91   46  113 1    
    92   46  114 1    
    93   47   48 2    
    94   47   49 am   BACKBONE|DICT|INTERRES
    95   49   50 1    
    96   49  115 1    
    97   50   51 1    
    98   50   52 1    
    99   50  116 1    
   100   51  117 1    
   101   51  118 1    
   102   51  119 1    
   103   52   53 2    
   104   52   54 am   BACKBONE|DICT|INTERRES
   105   54   55 1    
   106   54  120 1    
   107   55   56 1    
   108   55   57 1    
   109   55  121 1    
   110   56  122 1    
   111   56  123 1    
   112   56  124 1    
   113   57   58 2    
   114   57   59 am   BACKBONE|DICT|INTERRES
   115   59   60 1    
   116   59  125 1    
   117   60   61 1    
   118   60   62 1    
   119   60  126 1    
   120   61  127 1    
   121   61  128 1    
   122   61  129 1    
   123   62   63 2    
   124   62   64 am   BACKBONE|DICT|INTERRES
   125   64   65 1    
   126   64  130 1    
   127   65   66 1    
   128   65   69 1    
   129   65  131 1    
   130   66   67 am   BACKBONE|DICT|INTERRES
   131   66   68 2    
   132   67  132 1    
   133   67  133 1    
   134   69   70 1    
   135   69  134 1    
   136   69  135 1    
   137   70   71 1    
   138   71  136 1    
   139   71  137 1    
@<TRIPOS>SUBSTRUCTURE
     1 UNK         1 GROUP             0       ****    0 ROOT    
