@<TRIPOS>MOLECULE
3R137
137   139    1
SMALL
USER_CHARGES


@<TRIPOS>ATOM
      1 CA         29.2143   -0.0088   -1.2784 C.3       0 UNK        -0.2020 
      2 C          29.6280   -0.5844    0.0725 C.2       0 UNK         0.4855 
      3 O          30.2213    0.1326    0.8757 O.2       0 UNK        -0.5197 
      4 N          29.3583   -1.8630    0.3712 N.am      1 UNK        -0.4892 
      5 CA         28.5904   -2.8258   -0.4289 C.3       1 UNK         0.0835 
      6 C6         28.8540   -4.2691    0.0688 C.3       12 UNK        -0.0855 
      7 S7         28.6136   -5.5399   -1.2186 S.3       12 UNK        -0.2931 
      8 C8         30.2461   -5.5853   -2.0333 C.3       12 UNK         0.0378 
      9 C9         30.2885   -4.6465   -3.2300 C.ar      12 UNK        -0.0802 
     10 C10        30.9078   -3.3934   -3.1423 C.ar      12 UNK        -0.0944 
     11 C11        30.8978   -2.5194   -4.2354 C.ar      12 UNK        -0.0787 
     12 C12        30.2615   -2.9144   -5.4151 C.ar      12 UNK        -0.0862 
     13 C13        29.6898   -4.1819   -5.5359 C.ar      12 UNK        -0.0733 
     14 C14        29.7030   -5.0434   -4.4365 C.ar      12 UNK        -0.0832 
     15 C15        29.0887   -4.6182   -6.8663 C.3       12 UNK         0.0240 
     16 S16        27.3348   -5.0958   -6.7575 S.3       12 UNK        -0.2522 
     17 C17        26.5682   -3.6506   -5.9571 C.3       12 UNK        -0.0967 
     18 CA         26.1947   -2.5169   -6.9465 C.3       5 UNK         0.0660 
     19 N          24.9437   -1.8665   -6.5593 N.am      5 UNK        -0.4015 
     20 C          24.1856   -1.1111   -7.3645 C.2       4 UNK         0.4946 
     21 O          24.4187   -0.9311   -8.5598 O.2       4 UNK        -0.5353 
     22 CA         22.9681   -0.4255   -6.7179 C.3       4 UNK         0.0277 
     23 CB         21.7190   -1.3114   -6.8495 C.3       4 UNK        -0.1981 
     24 N          23.1802   -0.0858   -5.3060 N.am      4 UNK        -0.4209 
     25 C          24.0482    0.8431   -4.8805 C.2       3 UNK         0.4942 
     26 O          24.7395    1.5261   -5.6339 O.2       3 UNK        -0.5208 
     27 CA         24.2091    1.0066   -3.3603 C.3       3 UNK         0.0250 
     28 CB         23.1132    1.9254   -2.7972 C.3       3 UNK        -0.1990 
     29 N          24.2263   -0.2582   -2.6145 N.am      3 UNK        -0.4232 
     30 C          25.1161   -1.2432   -2.7973 C.2       2 UNK         0.4993 
     31 O          25.9613   -1.2488   -3.6970 O.2       2 UNK        -0.5286 
     32 CA         25.0364   -2.4381   -1.8382 C.3       2 UNK         0.0209 
     33 CB         24.2622   -3.5996   -2.4805 C.3       2 UNK        -0.1931 
     34 N          26.3948   -2.8789   -1.5213 N.am      2 UNK        -0.4546 
     35 C          27.0878   -2.4688   -0.4532 C.2       1 UNK         0.5154 
     36 O          26.5936   -1.8200    0.4729 O.2       1 UNK        -0.5181 
     37 C          27.3138   -1.4666   -7.0746 C.2       5 UNK         0.5014 
     38 O          28.0145   -1.4342   -8.0880 O.2       5 UNK        -0.5248 
     39 N          27.4276   -0.5930   -6.0627 N.am      6 UNK        -0.4434 
     40 CA         28.3620    0.5333   -6.0251 C.3       6 UNK         0.0363 
     41 CB         28.2535    1.2467   -4.6711 C.3       6 UNK        -0.1936 
     42 C          28.1530    1.5271   -7.1770 C.2       6 UNK         0.5081 
     43 O          29.1340    1.9788   -7.7608 O.2       6 UNK        -0.5248 
     44 N          26.8910    1.8115   -7.5257 N.am      7 UNK        -0.4718 
     45 CA         26.5157    2.6517   -8.6674 C.3       7 UNK         0.0273 
     46 CB         24.9936    2.8647   -8.6657 C.3       7 UNK        -0.1935 
     47 C          26.9785    2.0979  -10.0283 C.2       7 UNK         0.5018 
     48 O          27.2453    2.8882  -10.9345 O.2       7 UNK        -0.5186 
     49 N          27.0715    0.7664  -10.1484 N.am      8 UNK        -0.4240 
     50 CA         27.5691    0.0816  -11.3397 C.3       8 UNK         0.0235 
     51 CB         26.9326   -1.3156  -11.4354 C.3       8 UNK        -0.2000 
     52 C          29.1032   -0.0101  -11.3460 C.2       8 UNK         0.4941 
     53 O          29.7220    0.3147  -12.3601 O.2       8 UNK        -0.5273 
     54 N          29.6888   -0.4697  -10.2313 N.am      9 UNK        -0.4262 
     55 CA         31.1218   -0.7647  -10.1183 C.3       9 UNK         0.0264 
     56 CB         31.3198   -1.8221   -9.0249 C.3       9 UNK        -0.1955 
     57 C          32.0082    0.4568   -9.8190 C.2       9 UNK         0.5031 
     58 O          33.2267    0.3522   -9.9714 O.2       9 UNK        -0.5390 
     59 N          31.4135    1.5619   -9.3500 N.am      10 UNK        -0.4204 
     60 CA         32.0271    2.8047   -8.8613 C.3       10 UNK         0.0237 
     61 CB         32.9480    3.4655   -9.9069 C.3       10 UNK        -0.1985 
     62 C          32.7243    2.6448   -7.4983 C.2       10 UNK         0.4970 
     63 O          32.4520    3.4373   -6.5954 O.2       10 UNK        -0.4914 
     64 N          33.5884    1.6289   -7.3704 N.am      11 UNK        -0.4285 
     65 CA         34.3824    1.2964   -6.1740 C.3       11 UNK         0.1007 
     66 C          35.3372    2.4507   -5.7312 C.2       11 UNK         0.5703 
     67 N          35.7466    2.5089   -4.4701 N.am      11 UNK        -0.7361 
     68 O          35.7686    3.2689   -6.5425 O.2       11 UNK        -0.4986 
     69 C69        33.5084    0.6979   -5.0280 C.3       12 UNK        -0.0947 
     70 S70        32.7526   -0.8877   -5.5100 S.3       12 UNK        -0.2240 
     71 C71        31.5693   -1.1518   -4.1490 C.3       12 UNK         0.0194 
     72 H72        28.1393    0.1671   -1.3092 H         1 UNK         0.0906 
     73 H73        29.7121    0.9448   -1.4539 H         1 UNK         0.0906 
     74 H74        29.4875   -0.6728   -2.0957 H         1 UNK         0.0906 
     75 H75        29.6228   -2.1925    1.2886 H         1 UNK         0.3140 
     76 H76        28.9488   -2.7533   -1.4539 H         1 UNK         0.1085 
     77 H77        29.8770   -4.3645    0.4367 H         1 UNK         0.0836 
     78 H78        28.2202   -4.5104    0.9248 H         1 UNK         0.0836 
     79 H79        31.0397   -5.3501   -1.3228 H         1 UNK         0.0731 
     80 H80        30.4389   -6.6051   -2.3701 H         1 UNK         0.0731 
     81 H81        31.3839   -3.0944   -2.2182 H         1 UNK         0.1312 
     82 H82        30.2339   -2.2368   -6.2526 H         1 UNK         0.1406 
     83 H83        29.2437   -6.0197   -4.5168 H         1 UNK         0.1631 
     84 H84        29.6576   -5.4680   -7.2454 H         1 UNK         0.0717 
     85 H85        29.1884   -3.8324   -7.6154 H         1 UNK         0.0717 
     86 H86        25.6618   -4.0439   -5.4969 H         1 UNK         0.0934 
     87 H87        27.1749   -3.2977   -5.1209 H         1 UNK         0.0934 
     88 H88        26.0365   -2.9514   -7.9364 H         1 UNK         0.0739 
     89 H89        24.7096   -1.9013   -5.5777 H         1 UNK         0.3093 
     90 H90        22.7877    0.5030   -7.2643 H         1 UNK         0.0818 
     91 H91        20.8311   -0.8045   -6.4710 H         1 UNK         0.0819 
     92 H92        21.5264   -1.5597   -7.8943 H         1 UNK         0.0819 
     93 H93        21.8280   -2.2510   -6.3064 H         1 UNK         0.0819 
     94 H94        22.6426   -0.5961   -4.6202 H         1 UNK         0.3041 
     95 H95        25.1729    1.4911   -3.1910 H         1 UNK         0.0784 
     96 H96        23.0938    2.8792   -3.3268 H         1 UNK         0.0793 
     97 H97        22.1218    1.4805   -2.8910 H         1 UNK         0.0793 
     98 H98        23.2838    2.1475   -1.7435 H         1 UNK         0.0793 
     99 H99        23.5537   -0.3435   -1.8655 H         1 UNK         0.3024 
    100 H100       24.5146   -2.1352   -0.9272 H         1 UNK         0.1171 
    101 H101       23.2505   -3.2962   -2.7530 H         1 UNK         0.0786 
    102 H102       24.7502   -3.9648   -3.3830 H         1 UNK         0.0786 
    103 H103       24.1725   -4.4393   -1.7911 H         1 UNK         0.0786 
    104 H104       26.8764   -3.3898   -2.2481 H         1 UNK         0.2977 
    105 H105       26.8326   -0.7178   -5.2452 H         1 UNK         0.3127 
    106 H106       29.3698    0.1248   -6.1212 H         1 UNK         0.0770 
    107 H107       27.2879    1.7377   -4.5488 H         1 UNK         0.0814 
    108 H108       29.0259    2.0102   -4.5696 H         1 UNK         0.0814 
    109 H109       28.3735    0.5444   -3.8494 H         1 UNK         0.0814 
    110 H110       26.1329    1.4684   -6.9401 H         1 UNK         0.2983 
    111 H111       26.9979    3.6223   -8.5327 H         1 UNK         0.0947 
    112 H112       24.6861    3.5022   -9.4958 H         1 UNK         0.0806 
    113 H113       24.6617    3.3481   -7.7467 H         1 UNK         0.0806 
    114 H114       24.4560    1.9207   -8.7610 H         1 UNK         0.0806 
    115 H115       26.8481    0.1906   -9.3467 H         1 UNK         0.3000 
    116 H116       27.2648    0.6439  -12.2255 H         1 UNK         0.0850 
    117 H117       27.2674   -1.8352  -12.3342 H         1 UNK         0.0810 
    118 H118       25.8453   -1.2510  -11.4836 H         1 UNK         0.0810 
    119 H119       27.1889   -1.9436  -10.5817 H         1 UNK         0.0810 
    120 H120       29.1002   -0.7392   -9.4443 H         1 UNK         0.3040 
    121 H121       31.4647   -1.1909  -11.0636 H         1 UNK         0.0766 
    122 H122       32.3614   -2.1411   -8.9670 H         1 UNK         0.0812 
    123 H123       30.7151   -2.7100   -9.2084 H         1 UNK         0.0812 
    124 H124       31.0502   -1.4169   -8.0521 H         1 UNK         0.0812 
    125 H125       30.4189    1.5045   -9.1456 H         1 UNK         0.3205 
    126 H126       31.1912    3.4876   -8.7010 H         1 UNK         0.0754 
    127 H127       33.2744    4.4485   -9.5650 H         1 UNK         0.0769 
    128 H128       32.4316    3.6064  -10.8564 H         1 UNK         0.0769 
    129 H129       33.8471    2.8790  -10.0967 H         1 UNK         0.0769 
    130 H130       33.7441    1.0490   -8.1886 H         1 UNK         0.2981 
    131 H131       35.0645    0.5113   -6.5015 H         1 UNK         0.0541 
    132 H132       36.3818    3.2423   -4.1967 H         1 UNK         0.3459 
    133 H133       35.4317    1.8382   -3.7876 H         1 UNK         0.3459 
    134 H134       32.7274    1.3983   -4.7277 H         1 UNK         0.0612 
    135 H135       34.1042    0.4940   -4.1378 H         1 UNK         0.0612 
    136 H136       30.8084   -0.3721   -4.1805 H         1 UNK         0.0624 
    137 H137       32.0946   -1.0421   -3.1990 H         1 UNK         0.0624 
@<TRIPOS>BOND
     1    1    2 1    
     2    1   72 1    
     3    1   73 1    
     4    1   74 1    
     5    2    3 2    
     6    2    4 am   BACKBONE|DICT|INTERRES
     7    4    5 1    
     8    4   75 1    
     9    5    6 1    
    10    5   35 1    
    11    5   76 1    
    12    6    7 1    
    13    6   77 1    
    14    6   78 1    
    15    7    8 1    
    16    8    9 1    
    17    8   79 1    
    18    8   80 1    
    19    9   10 ar   
    20    9   14 ar   
    21   10   11 ar   
    22   10   81 1    
    23   11   12 ar   
    24   11   71 1    
    25   12   13 ar   
    26   12   82 1    
    27   13   14 ar   
    28   13   15 1    
    29   14   83 1    
    30   15   16 1    
    31   15   84 1    
    32   15   85 1    
    33   16   17 1    
    34   17   18 1    
    35   17   86 1    
    36   17   87 1    
    37   18   19 1    
    38   18   37 1    
    39   18   88 1    
    40   19   20 am   BACKBONE|DICT|INTERRES
    41   19   89 1    
    42   20   21 2    
    43   20   22 1    
    44   22   23 1    
    45   22   24 1    
    46   22   90 1    
    47   23   91 1    
    48   23   92 1    
    49   23   93 1    
    50   24   25 am   BACKBONE|DICT|INTERRES
    51   24   94 1    
    52   25   26 2    
    53   25   27 1    
    54   27   28 1    
    55   27   29 1    
    56   27   95 1    
    57   28   96 1    
    58   28   97 1    
    59   28   98 1    
    60   29   30 am   BACKBONE|DICT|INTERRES
    61   29   99 1    
    62   30   31 2    
    63   30   32 1    
    64   32   33 1    
    65   32   34 1    
    66   32  100 1    
    67   33  101 1    
    68   33  102 1    
    69   33  103 1    
    70   34   35 am   BACKBONE|DICT|INTERRES
    71   34  104 1    
    72   35   36 2    
    73   37   38 2    
    74   37   39 am   BACKBONE|DICT|INTERRES
    75   39   40 1    
    76   39  105 1    
    77   40   41 1    
    78   40   42 1    
    79   40  106 1    
    80   41  107 1    
    81   41  108 1    
    82   41  109 1    
    83   42   43 2    
    84   42   44 am   BACKBONE|DICT|INTERRES
    85   44   45 1    
    86   44  110 1    
    87   45   46 1    
    88   45   47 1    
    89   45  111 1    
    90   46  112 1    
    91   46  113 1    
    92   46  114 1    
    93   47   48 2    
    94   47   49 am   BACKBONE|DICT|INTERRES
    95   49   50 1    
    96   49  115 1    
    97   50   51 1    
    98   50   52 1    
    99   50  116 1    
   100   51  117 1    
   101   51  118 1    
   102   51  119 1    
   103   52   53 2    
   104   52   54 am   BACKBONE|DICT|INTERRES
   105   54   55 1    
   106   54  120 1    
   107   55   56 1    
   108   55   57 1    
   109   55  121 1    
   110   56  122 1    
   111   56  123 1    
   112   56  124 1    
   113   57   58 2    
   114   57   59 am   BACKBONE|DICT|INTERRES
   115   59   60 1    
   116   59  125 1    
   117   60   61 1    
   118   60   62 1    
   119   60  126 1    
   120   61  127 1    
   121   61  128 1    
   122   61  129 1    
   123   62   63 2    
   124   62   64 am   BACKBONE|DICT|INTERRES
   125   64   65 1    
   126   64  130 1    
   127   65   66 1    
   128   65   69 1    
   129   65  131 1    
   130   66   67 am   BACKBONE|DICT|INTERRES
   131   66   68 2    
   132   67  132 1    
   133   67  133 1    
   134   69   70 1    
   135   69  134 1    
   136   69  135 1    
   137   70   71 1    
   138   71  136 1    
   139   71  137 1    
@<TRIPOS>SUBSTRUCTURE
     1 UNK         1 GROUP             0       ****    0 ROOT    
