@<TRIPOS>MOLECULE
3R137
137   139    1
SMALL
USER_CHARGES


@<TRIPOS>ATOM
      1 CA         26.1164   -9.4624   -0.6591 C.3       0 UNK        -0.2020 
      2 C          26.1973   -7.9500   -0.8056 C.2       0 UNK         0.4855 
      3 O          25.3690   -7.2353   -0.2397 O.2       0 UNK        -0.5197 
      4 N          27.1925   -7.4567   -1.5536 N.am      1 UNK        -0.4892 
      5 CA         27.3782   -6.0339   -1.8618 C.3       1 UNK         0.0835 
      6 C6         28.8450   -5.7370   -2.2755 C.3       12 UNK        -0.0855 
      7 S7         29.4289   -4.1276   -1.6467 S.3       12 UNK        -0.2931 
      8 C8         29.4679   -3.1333   -3.1690 C.3       12 UNK         0.0378 
      9 C9         29.9870   -1.7301   -2.8997 C.ar      12 UNK        -0.0802 
     10 C10        31.2228   -1.3278   -3.4127 C.ar      12 UNK        -0.0944 
     11 C11        31.6868   -0.0256   -3.2098 C.ar      12 UNK        -0.0787 
     12 C12        30.9090    0.8762   -2.4779 C.ar      12 UNK        -0.0862 
     13 C13        29.6716    0.4847   -1.9539 C.ar      12 UNK        -0.0733 
     14 C14        29.2200   -0.8228   -2.1617 C.ar      12 UNK        -0.0832 
     15 C15        28.8152    1.4813   -1.1803 C.3       12 UNK         0.0240 
     16 S16        27.2448    1.8742   -2.0263 S.3       12 UNK        -0.2522 
     17 C17        27.8176    2.3321   -3.6970 C.3       12 UNK        -0.0967 
     18 CA         27.5666    1.1721   -4.7034 C.3       5 UNK         0.0660 
     19 N          26.1427    0.9348   -4.9543 N.am      5 UNK        -0.4015 
     20 C          25.3174    1.7022   -5.6850 C.2       4 UNK         0.4946 
     21 O          25.6722    2.7300   -6.2656 O.2       4 UNK        -0.5353 
     22 CA         23.8474    1.2547   -5.8098 C.3       4 UNK         0.0277 
     23 CB         23.5772    0.6804   -7.2097 C.3       4 UNK        -0.1981 
     24 N          23.4538    0.2577   -4.8130 N.am      4 UNK        -0.4209 
     25 C          23.2454    0.5059   -3.5125 C.2       3 UNK         0.4942 
     26 O          23.2646    1.6331   -3.0179 O.2       3 UNK        -0.5208 
     27 CA         22.9862   -0.7135   -2.6075 C.3       3 UNK         0.0250 
     28 CB         21.4817   -0.8670   -2.3298 C.3       3 UNK        -0.1990 
     29 N          23.5108   -1.9769   -3.1450 N.am      3 UNK        -0.4232 
     30 C          24.8121   -2.2524   -3.3073 C.2       2 UNK         0.4993 
     31 O          25.7220   -1.4637   -3.0439 O.2       2 UNK        -0.5286 
     32 CA         25.1674   -3.6180   -3.8952 C.3       2 UNK         0.0209 
     33 CB         25.7721   -3.4632   -5.3058 C.3       2 UNK        -0.1931 
     34 N          26.1174   -4.2560   -2.9891 N.am      2 UNK        -0.4546 
     35 C          26.3702   -5.5673   -2.9361 C.2       1 UNK         0.5154 
     36 O          25.8584   -6.3889   -3.7029 O.2       1 UNK        -0.5181 
     37 C          28.3545    1.2743   -6.0244 C.2       5 UNK         0.5014 
     38 O          28.2704    0.3503   -6.8373 O.2       5 UNK        -0.5248 
     39 N          29.0898    2.3761   -6.2324 N.am      6 UNK        -0.4434 
     40 CA         29.9638    2.6232   -7.3822 C.3       6 UNK         0.0363 
     41 CB         30.6433    3.9908   -7.2176 C.3       6 UNK        -0.1936 
     42 C          29.2817    2.5244   -8.7554 C.2       6 UNK         0.5081 
     43 O          29.9510    2.1588   -9.7201 O.2       6 UNK        -0.5248 
     44 N          27.9711    2.7959   -8.8224 N.am      7 UNK        -0.4718 
     45 CA         27.1656    2.6453  -10.0377 C.3       7 UNK         0.0273 
     46 CB         25.8028    3.3240   -9.8310 C.3       7 UNK        -0.1935 
     47 C          26.9912    1.1816  -10.4906 C.2       7 UNK         0.5018 
     48 O          26.7224    0.9565  -11.6714 O.2       7 UNK        -0.5186 
     49 N          27.1556    0.2242   -9.5666 N.am      8 UNK        -0.4240 
     50 CA         27.1436   -1.2129   -9.8428 C.3       8 UNK         0.0235 
     51 CB         26.1908   -1.9152   -8.8606 C.3       8 UNK        -0.2000 
     52 C          28.5541   -1.8108   -9.7402 C.2       8 UNK         0.4941 
     53 O          28.9397   -2.5988  -10.6041 O.2       8 UNK        -0.5273 
     54 N          29.2919   -1.4451   -8.6832 N.am      9 UNK        -0.4262 
     55 CA         30.5962   -2.0146   -8.3397 C.3       9 UNK         0.0264 
     56 CB         30.8533   -1.7857   -6.8419 C.3       9 UNK        -0.1955 
     57 C          31.7711   -1.4762   -9.1741 C.2       9 UNK         0.5031 
     58 O          32.8186   -2.1235   -9.1943 O.2       9 UNK        -0.5390 
     59 N          31.6040   -0.3077   -9.8151 N.am      10 UNK        -0.4204 
     60 CA         32.6052    0.4161  -10.6158 C.3       10 UNK         0.0237 
     61 CB         33.0263   -0.4018  -11.8561 C.3       10 UNK        -0.1985 
     62 C          33.8144    0.9323   -9.8047 C.2       10 UNK         0.4970 
     63 O          34.8516    1.2409  -10.3935 O.2       10 UNK        -0.4914 
     64 N          33.6607    1.0414   -8.4787 N.am      11 UNK        -0.4285 
     65 CA         34.6702    1.5469   -7.5344 C.3       11 UNK         0.1007 
     66 C          34.8353    3.0960   -7.5035 C.2       11 UNK         0.5703 
     67 N          34.0725    3.8656   -8.2708 N.am      11 UNK        -0.7361 
     68 O          35.6890    3.6095   -6.7841 O.2       11 UNK        -0.4986 
     69 C69        34.4791    0.9339   -6.1200 C.3       12 UNK        -0.0947 
     70 S70        32.8159    1.1859   -5.4141 S.3       12 UNK        -0.2240 
     71 C71        33.0267    0.4002   -3.7890 C.3       12 UNK         0.0194 
     72 H72        26.9183   -9.9685   -1.1962 H         1 UNK         0.0906 
     73 H73        26.1837   -9.7419    0.3920 H         1 UNK         0.0906 
     74 H74        25.1658   -9.8261   -1.0483 H         1 UNK         0.0906 
     75 H75        27.8164   -8.0939   -2.0285 H         1 UNK         0.3140 
     76 H76        27.1538   -5.4833   -0.9447 H         1 UNK         0.1085 
     77 H77        29.5159   -6.4818   -1.8439 H         1 UNK         0.0836 
     78 H78        28.9929   -5.8113   -3.3552 H         1 UNK         0.0836 
     79 H79        28.4697   -3.0647   -3.6000 H         1 UNK         0.0731 
     80 H80        30.0899   -3.6375   -3.9104 H         1 UNK         0.0731 
     81 H81        31.8213   -2.0246   -3.9831 H         1 UNK         0.1312 
     82 H82        31.2653    1.8863   -2.3276 H         1 UNK         0.1406 
     83 H83        28.2566   -1.1254   -1.7723 H         1 UNK         0.1631 
     84 H84        29.3621    2.4097   -1.0085 H         1 UNK         0.0717 
     85 H85        28.5916    1.0717   -0.1944 H         1 UNK         0.0717 
     86 H86        27.2979    3.2399   -4.0087 H         1 UNK         0.0934 
     87 H87        28.8746    2.5925   -3.6288 H         1 UNK         0.0934 
     88 H88        27.9304    0.2495   -4.2539 H         1 UNK         0.0739 
     89 H89        25.7669    0.1181   -4.4880 H         1 UNK         0.3093 
     90 H90        23.2242    2.1414   -5.6747 H         1 UNK         0.0818 
     91 H91        23.8011    1.4120   -7.9853 H         1 UNK         0.0819 
     92 H92        24.1875   -0.2007   -7.4053 H         1 UNK         0.0819 
     93 H93        22.5308    0.3991   -7.3296 H         1 UNK         0.0819 
     94 H94        23.3854   -0.6982   -5.1292 H         1 UNK         0.3041 
     95 H95        23.4917   -0.5210   -1.6584 H         1 UNK         0.0784 
     96 H96        21.0686    0.0477   -1.9016 H         1 UNK         0.0793 
     97 H97        20.9216   -1.0816   -3.2408 H         1 UNK         0.0793 
     98 H98        21.2886   -1.6699   -1.6180 H         1 UNK         0.0793 
     99 H99        22.8259   -2.6796   -3.3864 H         1 UNK         0.3024 
    100 H100       24.2668   -4.2337   -3.9561 H         1 UNK         0.1171 
    101 H101       25.0613   -2.9901   -5.9842 H         1 UNK         0.0786 
    102 H102       26.6728   -2.8478   -5.2972 H         1 UNK         0.0786 
    103 H103       26.0332   -4.4290   -5.7382 H         1 UNK         0.0786 
    104 H104       26.5677   -3.6287   -2.3343 H         1 UNK         0.2977 
    105 H105       29.0713    3.0999   -5.5298 H         1 UNK         0.3127 
    106 H106       30.7366    1.8540   -7.3675 H         1 UNK         0.0770 
    107 H107       29.9134    4.7950   -7.1180 H         1 UNK         0.0814 
    108 H108       31.2658    4.2267   -8.0811 H         1 UNK         0.0814 
    109 H109       31.2907    4.0093   -6.3405 H         1 UNK         0.0814 
    110 H110       27.4815    3.0543   -7.9748 H         1 UNK         0.2983 
    111 H111       27.6822    3.1663  -10.8471 H         1 UNK         0.0947 
    112 H112       25.1744    3.2227  -10.7170 H         1 UNK         0.0806 
    113 H113       25.9176    4.3904   -9.6366 H         1 UNK         0.0806 
    114 H114       25.2603    2.8895   -8.9927 H         1 UNK         0.0806 
    115 H115       27.4037    0.5015   -8.6222 H         1 UNK         0.3000 
    116 H116       26.7812   -1.4063  -10.8548 H         1 UNK         0.0850 
    117 H117       26.2301   -2.9987   -8.9812 H         1 UNK         0.0810 
    118 H118       25.1591   -1.6115   -9.0347 H         1 UNK         0.0810 
    119 H119       26.4397   -1.6915   -7.8224 H         1 UNK         0.0810 
    120 H120       28.8903   -0.8011   -8.0014 H         1 UNK         0.3040 
    121 H121       30.5525   -3.0926   -8.5101 H         1 UNK         0.0766 
    122 H122       30.8598   -0.7252   -6.5911 H         1 UNK         0.0812 
    123 H123       31.8159   -2.1995   -6.5385 H         1 UNK         0.0812 
    124 H124       30.0870   -2.2642   -6.2320 H         1 UNK         0.0812 
    125 H125       30.7135    0.1698   -9.7258 H         1 UNK         0.3205 
    126 H126       32.1013    1.3105  -10.9833 H         1 UNK         0.0754 
    127 H127       33.6294    0.2004  -12.5367 H         1 UNK         0.0769 
    128 H128       32.1573   -0.7470  -12.4165 H         1 UNK         0.0769 
    129 H129       33.6201   -1.2753  -11.5856 H         1 UNK         0.0769 
    130 H130       32.7805    0.7725   -8.0683 H         1 UNK         0.2981 
    131 H131       35.6366    1.1835   -7.8886 H         1 UNK         0.0541 
    132 H132       34.2014    4.8646   -8.2466 H         1 UNK         0.3459 
    133 H133       33.3918    3.4566   -8.8882 H         1 UNK         0.3459 
    134 H134       35.2243    1.3194   -5.4217 H         1 UNK         0.0612 
    135 H135       34.6544   -0.1418   -6.1736 H         1 UNK         0.0612 
    136 H136       33.6809   -0.4681   -3.8825 H         1 UNK         0.0624 
    137 H137       33.5297    1.0950   -3.1148 H         1 UNK         0.0624 
@<TRIPOS>BOND
     1    1    2 1    
     2    1   72 1    
     3    1   73 1    
     4    1   74 1    
     5    2    3 2    
     6    2    4 am   BACKBONE|DICT|INTERRES
     7    4    5 1    
     8    4   75 1    
     9    5    6 1    
    10    5   35 1    
    11    5   76 1    
    12    6    7 1    
    13    6   77 1    
    14    6   78 1    
    15    7    8 1    
    16    8    9 1    
    17    8   79 1    
    18    8   80 1    
    19    9   10 ar   
    20    9   14 ar   
    21   10   11 ar   
    22   10   81 1    
    23   11   12 ar   
    24   11   71 1    
    25   12   13 ar   
    26   12   82 1    
    27   13   14 ar   
    28   13   15 1    
    29   14   83 1    
    30   15   16 1    
    31   15   84 1    
    32   15   85 1    
    33   16   17 1    
    34   17   18 1    
    35   17   86 1    
    36   17   87 1    
    37   18   19 1    
    38   18   37 1    
    39   18   88 1    
    40   19   20 am   BACKBONE|DICT|INTERRES
    41   19   89 1    
    42   20   21 2    
    43   20   22 1    
    44   22   23 1    
    45   22   24 1    
    46   22   90 1    
    47   23   91 1    
    48   23   92 1    
    49   23   93 1    
    50   24   25 am   BACKBONE|DICT|INTERRES
    51   24   94 1    
    52   25   26 2    
    53   25   27 1    
    54   27   28 1    
    55   27   29 1    
    56   27   95 1    
    57   28   96 1    
    58   28   97 1    
    59   28   98 1    
    60   29   30 am   BACKBONE|DICT|INTERRES
    61   29   99 1    
    62   30   31 2    
    63   30   32 1    
    64   32   33 1    
    65   32   34 1    
    66   32  100 1    
    67   33  101 1    
    68   33  102 1    
    69   33  103 1    
    70   34   35 am   BACKBONE|DICT|INTERRES
    71   34  104 1    
    72   35   36 2    
    73   37   38 2    
    74   37   39 am   BACKBONE|DICT|INTERRES
    75   39   40 1    
    76   39  105 1    
    77   40   41 1    
    78   40   42 1    
    79   40  106 1    
    80   41  107 1    
    81   41  108 1    
    82   41  109 1    
    83   42   43 2    
    84   42   44 am   BACKBONE|DICT|INTERRES
    85   44   45 1    
    86   44  110 1    
    87   45   46 1    
    88   45   47 1    
    89   45  111 1    
    90   46  112 1    
    91   46  113 1    
    92   46  114 1    
    93   47   48 2    
    94   47   49 am   BACKBONE|DICT|INTERRES
    95   49   50 1    
    96   49  115 1    
    97   50   51 1    
    98   50   52 1    
    99   50  116 1    
   100   51  117 1    
   101   51  118 1    
   102   51  119 1    
   103   52   53 2    
   104   52   54 am   BACKBONE|DICT|INTERRES
   105   54   55 1    
   106   54  120 1    
   107   55   56 1    
   108   55   57 1    
   109   55  121 1    
   110   56  122 1    
   111   56  123 1    
   112   56  124 1    
   113   57   58 2    
   114   57   59 am   BACKBONE|DICT|INTERRES
   115   59   60 1    
   116   59  125 1    
   117   60   61 1    
   118   60   62 1    
   119   60  126 1    
   120   61  127 1    
   121   61  128 1    
   122   61  129 1    
   123   62   63 2    
   124   62   64 am   BACKBONE|DICT|INTERRES
   125   64   65 1    
   126   64  130 1    
   127   65   66 1    
   128   65   69 1    
   129   65  131 1    
   130   66   67 am   BACKBONE|DICT|INTERRES
   131   66   68 2    
   132   67  132 1    
   133   67  133 1    
   134   69   70 1    
   135   69  134 1    
   136   69  135 1    
   137   70   71 1    
   138   71  136 1    
   139   71  137 1    
@<TRIPOS>SUBSTRUCTURE
     1 UNK         1 GROUP             0       ****    0 ROOT    
