@<TRIPOS>MOLECULE
3R137
137   139    1
SMALL
USER_CHARGES


@<TRIPOS>ATOM
      1 CA         28.1340   -3.0499    3.3617 C.3       0 UNK        -0.2020 
      2 C          28.5783   -2.5442    1.9975 C.2       0 UNK         0.4855 
      3 O          29.4354   -1.6640    1.9200 O.2       0 UNK        -0.5197 
      4 N          28.0031   -3.0947    0.9203 N.am      1 UNK        -0.4892 
      5 CA         28.3179   -2.7423   -0.4715 C.3       1 UNK         0.0835 
      6 C6         27.7400   -3.7741   -1.4759 C.3       12 UNK        -0.0855 
      7 S7         28.1633   -5.5141   -1.1211 S.3       12 UNK        -0.2931 
      8 C8         29.9609   -5.5678   -1.4255 C.3       12 UNK         0.0378 
      9 C9         30.3750   -4.9907   -2.7748 C.ar      12 UNK        -0.0802 
     10 C10        31.3769   -4.0172   -2.8314 C.ar      12 UNK        -0.0944 
     11 C11        31.7971   -3.4836   -4.0529 C.ar      12 UNK        -0.0787 
     12 C12        31.1948   -3.9450   -5.2311 C.ar      12 UNK        -0.0862 
     13 C13        30.1653   -4.8913   -5.1907 C.ar      12 UNK        -0.0733 
     14 C14        29.7730   -5.4259   -3.9607 C.ar      12 UNK        -0.0832 
     15 C15        29.4679   -5.3177   -6.4784 C.3       12 UNK         0.0240 
     16 S16        27.9147   -4.3960   -6.7598 S.3       12 UNK        -0.2522 
     17 C17        28.5068   -2.6746   -6.6769 C.3       12 UNK        -0.0967 
     18 CA         27.7154   -1.6616   -7.5351 C.3       5 UNK         0.0660 
     19 N          26.2737   -1.6770   -7.2500 N.am      5 UNK        -0.4015 
     20 C          25.3587   -0.8233   -7.7376 C.2       4 UNK         0.4946 
     21 O          25.6094    0.0407   -8.5787 O.2       4 UNK        -0.5353 
     22 CA         23.9372   -0.8778   -7.1503 C.3       4 UNK         0.0277 
     23 CB         23.0228   -1.7064   -8.0665 C.3       4 UNK        -0.1981 
     24 N          23.8177   -1.3703   -5.7698 N.am      4 UNK        -0.4209 
     25 C          24.5394   -0.9892   -4.7039 C.2       3 UNK         0.4942 
     26 O          25.5048   -0.2233   -4.7655 O.2       3 UNK        -0.5208 
     27 CA         24.1226   -1.6187   -3.3600 C.3       3 UNK         0.0250 
     28 CB         24.2249   -3.1557   -3.4148 C.3       3 UNK        -0.1990 
     29 N          24.9380   -1.1539   -2.2385 N.am      3 UNK        -0.4232 
     30 C          24.9514    0.0727   -1.6981 C.2       2 UNK         0.4993 
     31 O          24.1850    0.9766   -2.0347 O.2       2 UNK        -0.5286 
     32 CA         25.9740    0.3242   -0.5667 C.3       2 UNK         0.0209 
     33 CB         25.2806    0.8598    0.6987 C.3       2 UNK        -0.1931 
     34 N          26.7376   -0.8789   -0.2089 N.am      2 UNK        -0.4546 
     35 C          27.8179   -1.3342   -0.8610 C.2       1 UNK         0.5154 
     36 O          28.3705   -0.7217   -1.7740 O.2       1 UNK        -0.5181 
     37 C          28.3628   -0.2751   -7.3343 C.2       5 UNK         0.5014 
     38 O          29.2786    0.0750   -8.0815 O.2       5 UNK        -0.5248 
     39 N          27.8702    0.4951   -6.3517 N.am      6 UNK        -0.4434 
     40 CA         28.3223    1.8531   -6.0493 C.3       6 UNK         0.0363 
     41 CB         27.6111    2.3578   -4.7847 C.3       6 UNK        -0.1936 
     42 C          28.1383    2.8460   -7.2113 C.2       6 UNK         0.5081 
     43 O          28.8986    3.8102   -7.2919 O.2       6 UNK        -0.5248 
     44 N          27.1640    2.5819   -8.0925 N.am      7 UNK        -0.4718 
     45 CA         26.9146    3.3404   -9.3159 C.3       7 UNK         0.0273 
     46 CB         25.4160    3.6726   -9.4097 C.3       7 UNK        -0.1935 
     47 C          27.3713    2.5544  -10.5533 C.2       7 UNK         0.5018 
     48 O          28.0644    3.1180  -11.3994 O.2       7 UNK        -0.5186 
     49 N          26.9779    1.2751  -10.6431 N.am      8 UNK        -0.4240 
     50 CA         27.1727    0.4155  -11.8146 C.3       8 UNK         0.0235 
     51 CB         26.3215   -0.8563  -11.6640 C.3       8 UNK        -0.2000 
     52 C          28.6389    0.0498  -12.0878 C.2       8 UNK         0.4941 
     53 O          29.0429    0.0264  -13.2510 O.2       8 UNK        -0.5273 
     54 N          29.4033   -0.2226  -11.0229 N.am      9 UNK        -0.4262 
     55 CA         30.8341   -0.5363  -11.0829 C.3       9 UNK         0.0264 
     56 CB         31.0906   -1.8302  -10.2877 C.3       9 UNK        -0.1955 
     57 C          31.6961    0.6197  -10.5443 C.2       9 UNK         0.5031 
     58 O          32.9211    0.4916  -10.5323 O.2       9 UNK        -0.5390 
     59 N          31.0503    1.7068  -10.0895 N.am      10 UNK        -0.4204 
     60 CA         31.6230    2.8679   -9.3974 C.3       10 UNK         0.0237 
     61 CB         32.5055    3.6971  -10.3547 C.3       10 UNK        -0.1985 
     62 C          32.3462    2.4847   -8.0884 C.2       10 UNK         0.4970 
     63 O          33.3505    3.1073   -7.7390 O.2       10 UNK        -0.4914 
     64 N          31.8364    1.4534   -7.3996 N.am      11 UNK        -0.4285 
     65 CA         32.4569    0.8423   -6.2130 C.3       11 UNK         0.1007 
     66 C          32.3256    1.6559   -4.8894 C.2       11 UNK         0.5703 
     67 N          31.6904    2.8222   -4.8795 N.am      11 UNK        -0.7361 
     68 O          32.8230    1.2299   -3.8505 O.2       11 UNK        -0.4986 
     69 C69        32.0145   -0.6425   -6.0611 C.3       12 UNK        -0.0947 
     70 S70        33.4098   -1.7448   -5.6490 S.3       12 UNK        -0.2240 
     71 C71        32.8994   -2.4192   -4.0301 C.3       12 UNK         0.0194 
     72 H72        27.7220   -2.2303    3.9498 H         1 UNK         0.0906 
     73 H73        27.3731   -3.8260    3.2818 H         1 UNK         0.0906 
     74 H74        28.9843   -3.4639    3.9030 H         1 UNK         0.0906 
     75 H75        27.3344   -3.8435    1.0392 H         1 UNK         0.3140 
     76 H76        29.4050   -2.7308   -0.5770 H         1 UNK         0.1085 
     77 H77        26.6500   -3.7220   -1.4855 H         1 UNK         0.0836 
     78 H78        28.0545   -3.5366   -2.4944 H         1 UNK         0.0836 
     79 H79        30.4625   -5.0450   -0.6095 H         1 UNK         0.0731 
     80 H80        30.2939   -6.6051   -1.3712 H         1 UNK         0.0731 
     81 H81        31.8413   -3.6735   -1.9168 H         1 UNK         0.1312 
     82 H82        31.5049   -3.5591   -6.1904 H         1 UNK         0.1406 
     83 H83        28.9845   -6.1656   -3.9234 H         1 UNK         0.1631 
     84 H84        29.2446   -6.3849   -6.4415 H         1 UNK         0.0717 
     85 H85        30.1287   -5.1755   -7.3351 H         1 UNK         0.0717 
     86 H86        28.5113   -2.3794   -5.6246 H         1 UNK         0.0934 
     87 H87        29.5472   -2.6620   -7.0040 H         1 UNK         0.0934 
     88 H88        27.8343   -1.9293   -8.5865 H         1 UNK         0.0739 
     89 H89        25.9714   -2.3559   -6.5674 H         1 UNK         0.3093 
     90 H90        23.5676    0.1496   -7.1444 H         1 UNK         0.0818 
     91 H91        21.9800   -1.6394   -7.7559 H         1 UNK         0.0819 
     92 H92        23.0730   -1.3492   -9.0965 H         1 UNK         0.0819 
     93 H93        23.3059   -2.7598   -8.0733 H         1 UNK         0.0819 
     94 H94        23.0592   -2.0174   -5.6086 H         1 UNK         0.3041 
     95 H95        23.0862   -1.3359   -3.1641 H         1 UNK         0.0784 
     96 H96        23.5427   -3.5797   -4.1523 H         1 UNK         0.0793 
     97 H97        25.2318   -3.4850   -3.6764 H         1 UNK         0.0793 
     98 H98        23.9656   -3.6052   -2.4557 H         1 UNK         0.0793 
     99 H99        25.6238   -1.8046   -1.8938 H         1 UNK         0.3024 
    100 H100       26.6652    1.0887   -0.9295 H         1 UNK         0.1171 
    101 H101       24.7498    1.7902    0.4919 H         1 UNK         0.0786 
    102 H102       26.0031    1.0717    1.4871 H         1 UNK         0.0786 
    103 H103       24.5521    0.1494    1.0915 H         1 UNK         0.0786 
    104 H104       26.3638   -1.4476    0.5380 H         1 UNK         0.2977 
    105 H105       27.0927    0.1469   -5.7932 H         1 UNK         0.3127 
    106 H106       29.3887    1.7927   -5.8375 H         1 UNK         0.0770 
    107 H107       26.5315    2.4208   -4.9282 H         1 UNK         0.0814 
    108 H108       27.9645    3.3518   -4.5074 H         1 UNK         0.0814 
    109 H109       27.7965    1.6986   -3.9358 H         1 UNK         0.0814 
    110 H110       26.6122    1.7406   -7.9638 H         1 UNK         0.2983 
    111 H111       27.4673    4.2827   -9.3000 H         1 UNK         0.0947 
    112 H112       25.1948    4.2266  -10.3232 H         1 UNK         0.0806 
    113 H113       25.0972    4.2916   -8.5710 H         1 UNK         0.0806 
    114 H114       24.7979    2.7737   -9.4139 H         1 UNK         0.0806 
    115 H115       26.4189    0.8786   -9.8873 H         1 UNK         0.3000 
    116 H116       26.8067    0.9635  -12.6856 H         1 UNK         0.0850 
    117 H117       26.4129   -1.4947  -12.5438 H         1 UNK         0.0810 
    118 H118       25.2648   -0.6145  -11.5475 H         1 UNK         0.0810 
    119 H119       26.6250   -1.4470  -10.7990 H         1 UNK         0.0810 
    120 H120       29.0030   -0.1672  -10.0923 H         1 UNK         0.3040 
    121 H121       31.1468   -0.7089  -12.1146 H         1 UNK         0.0766 
    122 H122       32.1395   -2.1239  -10.3452 H         1 UNK         0.0812 
    123 H123       30.5021   -2.6591  -10.6809 H         1 UNK         0.0812 
    124 H124       30.8442   -1.7166   -9.2326 H         1 UNK         0.0812 
    125 H125       30.0436    1.7039  -10.1679 H         1 UNK         0.3205 
    126 H126       30.7803    3.4958   -9.1079 H         1 UNK         0.0754 
    127 H127       32.8203    4.6308   -9.8871 H         1 UNK         0.0769 
    128 H128       31.9647    3.9587  -11.2643 H         1 UNK         0.0769 
    129 H129       33.4081    3.1579  -10.6439 H         1 UNK         0.0769 
    130 H130       30.9914    1.0055   -7.7402 H         1 UNK         0.2981 
    131 H131       33.5285    0.8438   -6.4220 H         1 UNK         0.0541 
    132 H132       31.3111    3.2081   -5.7290 H         1 UNK         0.3459 
    133 H133       31.6264    3.3377   -4.0163 H         1 UNK         0.3459 
    134 H134       31.6111   -1.0202   -7.0012 H         1 UNK         0.0612 
    135 H135       31.2054   -0.7519   -5.3361 H         1 UNK         0.0612 
    136 H136       33.7833   -2.8536   -3.5614 H         1 UNK         0.0624 
    137 H137       32.5878   -1.5922   -3.3902 H         1 UNK         0.0624 
@<TRIPOS>BOND
     1    1    2 1    
     2    1   72 1    
     3    1   73 1    
     4    1   74 1    
     5    2    3 2    
     6    2    4 am   BACKBONE|DICT|INTERRES
     7    4    5 1    
     8    4   75 1    
     9    5    6 1    
    10    5   35 1    
    11    5   76 1    
    12    6    7 1    
    13    6   77 1    
    14    6   78 1    
    15    7    8 1    
    16    8    9 1    
    17    8   79 1    
    18    8   80 1    
    19    9   10 ar   
    20    9   14 ar   
    21   10   11 ar   
    22   10   81 1    
    23   11   12 ar   
    24   11   71 1    
    25   12   13 ar   
    26   12   82 1    
    27   13   14 ar   
    28   13   15 1    
    29   14   83 1    
    30   15   16 1    
    31   15   84 1    
    32   15   85 1    
    33   16   17 1    
    34   17   18 1    
    35   17   86 1    
    36   17   87 1    
    37   18   19 1    
    38   18   37 1    
    39   18   88 1    
    40   19   20 am   BACKBONE|DICT|INTERRES
    41   19   89 1    
    42   20   21 2    
    43   20   22 1    
    44   22   23 1    
    45   22   24 1    
    46   22   90 1    
    47   23   91 1    
    48   23   92 1    
    49   23   93 1    
    50   24   25 am   BACKBONE|DICT|INTERRES
    51   24   94 1    
    52   25   26 2    
    53   25   27 1    
    54   27   28 1    
    55   27   29 1    
    56   27   95 1    
    57   28   96 1    
    58   28   97 1    
    59   28   98 1    
    60   29   30 am   BACKBONE|DICT|INTERRES
    61   29   99 1    
    62   30   31 2    
    63   30   32 1    
    64   32   33 1    
    65   32   34 1    
    66   32  100 1    
    67   33  101 1    
    68   33  102 1    
    69   33  103 1    
    70   34   35 am   BACKBONE|DICT|INTERRES
    71   34  104 1    
    72   35   36 2    
    73   37   38 2    
    74   37   39 am   BACKBONE|DICT|INTERRES
    75   39   40 1    
    76   39  105 1    
    77   40   41 1    
    78   40   42 1    
    79   40  106 1    
    80   41  107 1    
    81   41  108 1    
    82   41  109 1    
    83   42   43 2    
    84   42   44 am   BACKBONE|DICT|INTERRES
    85   44   45 1    
    86   44  110 1    
    87   45   46 1    
    88   45   47 1    
    89   45  111 1    
    90   46  112 1    
    91   46  113 1    
    92   46  114 1    
    93   47   48 2    
    94   47   49 am   BACKBONE|DICT|INTERRES
    95   49   50 1    
    96   49  115 1    
    97   50   51 1    
    98   50   52 1    
    99   50  116 1    
   100   51  117 1    
   101   51  118 1    
   102   51  119 1    
   103   52   53 2    
   104   52   54 am   BACKBONE|DICT|INTERRES
   105   54   55 1    
   106   54  120 1    
   107   55   56 1    
   108   55   57 1    
   109   55  121 1    
   110   56  122 1    
   111   56  123 1    
   112   56  124 1    
   113   57   58 2    
   114   57   59 am   BACKBONE|DICT|INTERRES
   115   59   60 1    
   116   59  125 1    
   117   60   61 1    
   118   60   62 1    
   119   60  126 1    
   120   61  127 1    
   121   61  128 1    
   122   61  129 1    
   123   62   63 2    
   124   62   64 am   BACKBONE|DICT|INTERRES
   125   64   65 1    
   126   64  130 1    
   127   65   66 1    
   128   65   69 1    
   129   65  131 1    
   130   66   67 am   BACKBONE|DICT|INTERRES
   131   66   68 2    
   132   67  132 1    
   133   67  133 1    
   134   69   70 1    
   135   69  134 1    
   136   69  135 1    
   137   70   71 1    
   138   71  136 1    
   139   71  137 1    
@<TRIPOS>SUBSTRUCTURE
     1 UNK         1 GROUP             0       ****    0 ROOT    
