@<TRIPOS>MOLECULE
3R137
137   139    1
SMALL
USER_CHARGES


@<TRIPOS>ATOM
      1 CA         26.0791   -7.2564    1.1955 C.3       0 UNK        -0.2020 
      2 C          26.0087   -5.7366    1.1843 C.2       0 UNK         0.4855 
      3 O          25.0058   -5.1687    1.6168 O.2       0 UNK        -0.5197 
      4 N          27.0687   -5.0759    0.6986 N.am      1 UNK        -0.4892 
      5 CA         27.1690   -3.6158    0.5755 C.3       1 UNK         0.0835 
      6 C6         28.6332   -3.1910    0.2979 C.3       12 UNK        -0.0855 
      7 S7         28.9674   -1.4156    0.5636 S.3       12 UNK        -0.2931 
      8 C8         28.7554   -0.6986   -1.1006 C.3       12 UNK         0.0378 
      9 C9         29.9024   -1.0332   -2.0466 C.ar      12 UNK        -0.0802 
     10 C10        30.9941   -0.1676   -2.1622 C.ar      12 UNK        -0.0944 
     11 C11        32.0482   -0.4639   -3.0325 C.ar      12 UNK        -0.0787 
     12 C12        32.0185   -1.6530   -3.7671 C.ar      12 UNK        -0.0862 
     13 C13        30.9189   -2.5108   -3.6863 C.ar      12 UNK        -0.0733 
     14 C14        29.8582   -2.1865   -2.8354 C.ar      12 UNK        -0.0832 
     15 C15        30.8922   -3.7983   -4.4995 C.3       12 UNK         0.0240 
     16 S16        30.4010   -3.5219   -6.2317 S.3       12 UNK        -0.2522 
     17 C17        28.6246   -3.1371   -6.0574 C.3       12 UNK        -0.0967 
     18 CA         28.1498   -1.9814   -6.9691 C.3       5 UNK         0.0660 
     19 N          26.7002   -1.8082   -6.9233 N.am      5 UNK        -0.4015 
     20 C          26.0000   -1.1464   -7.8554 C.2       4 UNK         0.4946 
     21 O          26.4930   -0.7046   -8.8937 O.2       4 UNK        -0.5353 
     22 CA         24.5064   -0.9088   -7.5709 C.3       4 UNK         0.0277 
     23 CB         23.6596   -2.0461   -8.1630 C.3       4 UNK        -0.1981 
     24 N          24.2086   -0.7649   -6.1420 N.am      4 UNK        -0.4209 
     25 C          24.6416    0.2499   -5.3792 C.2       3 UNK         0.4942 
     26 O          25.2892    1.1994   -5.8149 O.2       3 UNK        -0.5208 
     27 CA         24.3502    0.1730   -3.8715 C.3       3 UNK         0.0250 
     28 CB         23.0093    0.8496   -3.5476 C.3       3 UNK        -0.1990 
     29 N          24.3552   -1.1941   -3.3398 N.am      3 UNK        -0.4232 
     30 C          25.4221   -2.0051   -3.3326 C.2       2 UNK         0.4993 
     31 O          26.5182   -1.7002   -3.8104 O.2       2 UNK        -0.5286 
     32 CA         25.2122   -3.4143   -2.7516 C.3       2 UNK         0.0209 
     33 CB         25.3782   -4.4743   -3.8536 C.3       2 UNK        -0.1931 
     34 N          26.1257   -3.7234   -1.6481 N.am      2 UNK        -0.4546 
     35 C          26.1798   -3.0675   -0.4782 C.2       1 UNK         0.5154 
     36 O          25.4646   -2.1034   -0.2003 O.2       1 UNK        -0.5181 
     37 C          28.8495   -0.6375   -6.6839 C.2       5 UNK         0.5014 
     38 O          29.7213   -0.2390   -7.4553 O.2       5 UNK        -0.5248 
     39 N          28.4194    0.0582   -5.6211 N.am      6 UNK        -0.4434 
     40 CA         28.9415    1.3691   -5.2253 C.3       6 UNK         0.0363 
     41 CB         28.2684    1.8188   -3.9196 C.3       6 UNK        -0.1936 
     42 C          28.7653    2.4532   -6.3027 C.2       6 UNK         0.5081 
     43 O          29.7226    3.1632   -6.6095 O.2       6 UNK        -0.5248 
     44 N          27.5414    2.5726   -6.8330 N.am      7 UNK        -0.4718 
     45 CA         27.1575    3.5828   -7.8141 C.3       7 UNK         0.0273 
     46 CB         25.6679    3.9361   -7.6370 C.3       7 UNK        -0.1935 
     47 C          27.4896    3.1327   -9.2432 C.2       7 UNK         0.5018 
     48 O          28.4998    3.5710   -9.7926 O.2       7 UNK        -0.5186 
     49 N          26.6208    2.2983   -9.8322 N.am      8 UNK        -0.4240 
     50 CA         26.6261    1.9446  -11.2555 C.3       8 UNK         0.0235 
     51 CB         25.3701    1.1264  -11.5992 C.3       8 UNK        -0.2000 
     52 C          27.9001    1.2277  -11.7284 C.2       8 UNK         0.4941 
     53 O          28.4069    1.5617  -12.8005 O.2       8 UNK        -0.5273 
     54 N          28.4095    0.2824  -10.9265 N.am      9 UNK        -0.4262 
     55 CA         29.6641   -0.4234  -11.2162 C.3       9 UNK         0.0264 
     56 CB         29.6371   -1.8268  -10.5888 C.3       9 UNK        -0.1955 
     57 C          30.9179    0.3485  -10.7616 C.2       9 UNK         0.5031 
     58 O          32.0230   -0.1045  -11.0633 O.2       9 UNK        -0.5390 
     59 N          30.7467    1.4663  -10.0361 N.am      10 UNK        -0.4204 
     60 CA         31.7916    2.3393   -9.4817 C.3       10 UNK         0.0237 
     61 CB         32.4490    3.1605  -10.6110 C.3       10 UNK        -0.1985 
     62 C          32.8198    1.5895   -8.6071 C.2       10 UNK         0.4970 
     63 O          34.0221    1.8348   -8.7245 O.2       10 UNK        -0.4914 
     64 N          32.3217    0.6648   -7.7776 N.am      11 UNK        -0.4285 
     65 CA         33.0738   -0.2937   -6.9541 C.3       11 UNK         0.1007 
     66 C          33.7958   -1.4195   -7.7560 C.2       11 UNK         0.5703 
     67 N          33.6076   -1.5542   -9.0639 N.am      11 UNK        -0.7361 
     68 O          34.5224   -2.2201   -7.1719 O.2       11 UNK        -0.4986 
     69 C69        34.0051    0.3715   -5.8967 C.3       12 UNK        -0.0947 
     70 S70        33.1260    1.4581   -4.7205 S.3       12 UNK        -0.2240 
     71 C71        33.2178    0.4998   -3.1711 C.3       12 UNK         0.0194 
     72 H72        27.0226   -7.6256    0.7940 H         1 UNK         0.0906 
     73 H73        25.9758   -7.6291    2.2142 H         1 UNK         0.0906 
     74 H74        25.2698   -7.6734    0.5966 H         1 UNK         0.0906 
     75 H75        27.8671   -5.6031    0.3732 H         1 UNK         0.3140 
     76 H76        26.8749   -3.1924    1.5390 H         1 UNK         0.1085 
     77 H77        29.2910   -3.7193    0.9902 H         1 UNK         0.0836 
     78 H78        28.9572   -3.5100   -0.6897 H         1 UNK         0.0836 
     79 H79        28.6820    0.3831   -0.9821 H         1 UNK         0.0731 
     80 H80        27.8064   -1.0120   -1.5331 H         1 UNK         0.0731 
     81 H81        31.0195    0.7414   -1.5769 H         1 UNK         0.1312 
     82 H82        32.8439   -1.9053   -4.4175 H         1 UNK         0.1406 
     83 H83        28.9961   -2.8359   -2.7834 H         1 UNK         0.1631 
     84 H84        30.2213   -4.5290   -4.0449 H         1 UNK         0.0717 
     85 H85        31.8843   -4.2522   -4.4879 H         1 UNK         0.0717 
     86 H86        28.0713   -4.0455   -6.3003 H         1 UNK         0.0934 
     87 H87        28.3906   -2.9205   -5.0181 H         1 UNK         0.0934 
     88 H88        28.3959   -2.2704   -7.9903 H         1 UNK         0.0739 
     89 H89        26.2402   -2.0821   -6.0667 H         1 UNK         0.3093 
     90 H90        24.2241    0.0219   -8.0678 H         1 UNK         0.0818 
     91 H91        22.5937   -1.8505   -8.0448 H         1 UNK         0.0819 
     92 H92        23.8497   -2.1561   -9.2318 H         1 UNK         0.0819 
     93 H93        23.8808   -3.0049   -7.6924 H         1 UNK         0.0819 
     94 H94        23.6652   -1.4966   -5.7075 H         1 UNK         0.3041 
     95 H95        25.1419    0.7248   -3.3602 H         1 UNK         0.0784 
     96 H96        22.9926    1.8769   -3.9153 H         1 UNK         0.0793 
     97 H97        22.1690    0.3260   -4.0053 H         1 UNK         0.0793 
     98 H98        22.8351    0.8908   -2.4721 H         1 UNK         0.0793 
     99 H99        23.4931   -1.5170   -2.9237 H         1 UNK         0.3024 
    100 H100       24.1948   -3.4861   -2.3607 H         1 UNK         0.1171 
    101 H101       26.3950   -4.4926   -4.2476 H         1 UNK         0.0786 
    102 H102       25.1460   -5.4725   -3.4817 H         1 UNK         0.0786 
    103 H103       24.7068   -4.2799   -4.6911 H         1 UNK         0.0786 
    104 H104       26.7380   -4.5146   -1.7786 H         1 UNK         0.2977 
    105 H105       27.7051   -0.3512   -5.0296 H         1 UNK         0.3127 
    106 H106       30.0105    1.2468   -5.0378 H         1 UNK         0.0770 
    107 H107       27.2107    2.0425   -4.0598 H         1 UNK         0.0814 
    108 H108       28.7439    2.7189   -3.5280 H         1 UNK         0.0814 
    109 H109       28.3413    1.0516   -3.1554 H         1 UNK         0.0814 
    110 H110       26.8000    1.9596   -6.4962 H         1 UNK         0.2983 
    111 H111       27.7287    4.4948   -7.6248 H         1 UNK         0.0947 
    112 H112       25.3492    4.6710   -8.3775 H         1 UNK         0.0806 
    113 H113       25.4848    4.3698   -6.6537 H         1 UNK         0.0806 
    114 H114       25.0172    3.0668   -7.7352 H         1 UNK         0.0806 
    115 H115       25.8584    1.9335   -9.2809 H         1 UNK         0.3000 
    116 H116       26.5682    2.8835  -11.8107 H         1 UNK         0.0850 
    117 H117       25.3354    0.8986  -12.6654 H         1 UNK         0.0810 
    118 H118       24.4594    1.6748  -11.3577 H         1 UNK         0.0810 
    119 H119       25.3418    0.1766  -11.0655 H         1 UNK         0.0810 
    120 H120       27.9004    0.0248  -10.0833 H         1 UNK         0.3040 
    121 H121       29.7432   -0.5569  -12.2973 H         1 UNK         0.0766 
    122 H122       29.8926   -1.7986   -9.5315 H         1 UNK         0.0812 
    123 H123       30.3751   -2.4714  -11.0675 H         1 UNK         0.0812 
    124 H124       28.6645   -2.3070  -10.6980 H         1 UNK         0.0812 
    125 H125       29.7973    1.7659   -9.8492 H         1 UNK         0.3205 
    126 H126       31.2827    3.0400   -8.8188 H         1 UNK         0.0754 
    127 H127       33.1475    3.8944  -10.2072 H         1 UNK         0.0769 
    128 H128       31.7021    3.7083  -11.1859 H         1 UNK         0.0769 
    129 H129       33.0045    2.5246  -11.3012 H         1 UNK         0.0769 
    130 H130       31.3142    0.5079   -7.7692 H         1 UNK         0.2981 
    131 H131       32.2958   -0.8256   -6.4088 H         1 UNK         0.0541 
    132 H132       33.0215   -0.9129   -9.5889 H         1 UNK         0.3459 
    133 H133       34.0794   -2.3011   -9.5471 H         1 UNK         0.3459 
    134 H134       34.7808    0.9611   -6.3861 H         1 UNK         0.0612 
    135 H135       34.5418   -0.3885   -5.3280 H         1 UNK         0.0612 
    136 H136       33.2215    1.2040   -2.3378 H         1 UNK         0.0624 
    137 H137       34.1628   -0.0408   -3.1067 H         1 UNK         0.0624 
@<TRIPOS>BOND
     1    1    2 1    
     2    1   72 1    
     3    1   73 1    
     4    1   74 1    
     5    2    3 2    
     6    2    4 am   BACKBONE|DICT|INTERRES
     7    4    5 1    
     8    4   75 1    
     9    5    6 1    
    10    5   35 1    
    11    5   76 1    
    12    6    7 1    
    13    6   77 1    
    14    6   78 1    
    15    7    8 1    
    16    8    9 1    
    17    8   79 1    
    18    8   80 1    
    19    9   10 ar   
    20    9   14 ar   
    21   10   11 ar   
    22   10   81 1    
    23   11   12 ar   
    24   11   71 1    
    25   12   13 ar   
    26   12   82 1    
    27   13   14 ar   
    28   13   15 1    
    29   14   83 1    
    30   15   16 1    
    31   15   84 1    
    32   15   85 1    
    33   16   17 1    
    34   17   18 1    
    35   17   86 1    
    36   17   87 1    
    37   18   19 1    
    38   18   37 1    
    39   18   88 1    
    40   19   20 am   BACKBONE|DICT|INTERRES
    41   19   89 1    
    42   20   21 2    
    43   20   22 1    
    44   22   23 1    
    45   22   24 1    
    46   22   90 1    
    47   23   91 1    
    48   23   92 1    
    49   23   93 1    
    50   24   25 am   BACKBONE|DICT|INTERRES
    51   24   94 1    
    52   25   26 2    
    53   25   27 1    
    54   27   28 1    
    55   27   29 1    
    56   27   95 1    
    57   28   96 1    
    58   28   97 1    
    59   28   98 1    
    60   29   30 am   BACKBONE|DICT|INTERRES
    61   29   99 1    
    62   30   31 2    
    63   30   32 1    
    64   32   33 1    
    65   32   34 1    
    66   32  100 1    
    67   33  101 1    
    68   33  102 1    
    69   33  103 1    
    70   34   35 am   BACKBONE|DICT|INTERRES
    71   34  104 1    
    72   35   36 2    
    73   37   38 2    
    74   37   39 am   BACKBONE|DICT|INTERRES
    75   39   40 1    
    76   39  105 1    
    77   40   41 1    
    78   40   42 1    
    79   40  106 1    
    80   41  107 1    
    81   41  108 1    
    82   41  109 1    
    83   42   43 2    
    84   42   44 am   BACKBONE|DICT|INTERRES
    85   44   45 1    
    86   44  110 1    
    87   45   46 1    
    88   45   47 1    
    89   45  111 1    
    90   46  112 1    
    91   46  113 1    
    92   46  114 1    
    93   47   48 2    
    94   47   49 am   BACKBONE|DICT|INTERRES
    95   49   50 1    
    96   49  115 1    
    97   50   51 1    
    98   50   52 1    
    99   50  116 1    
   100   51  117 1    
   101   51  118 1    
   102   51  119 1    
   103   52   53 2    
   104   52   54 am   BACKBONE|DICT|INTERRES
   105   54   55 1    
   106   54  120 1    
   107   55   56 1    
   108   55   57 1    
   109   55  121 1    
   110   56  122 1    
   111   56  123 1    
   112   56  124 1    
   113   57   58 2    
   114   57   59 am   BACKBONE|DICT|INTERRES
   115   59   60 1    
   116   59  125 1    
   117   60   61 1    
   118   60   62 1    
   119   60  126 1    
   120   61  127 1    
   121   61  128 1    
   122   61  129 1    
   123   62   63 2    
   124   62   64 am   BACKBONE|DICT|INTERRES
   125   64   65 1    
   126   64  130 1    
   127   65   66 1    
   128   65   69 1    
   129   65  131 1    
   130   66   67 am   BACKBONE|DICT|INTERRES
   131   66   68 2    
   132   67  132 1    
   133   67  133 1    
   134   69   70 1    
   135   69  134 1    
   136   69  135 1    
   137   70   71 1    
   138   71  136 1    
   139   71  137 1    
@<TRIPOS>SUBSTRUCTURE
     1 UNK         1 GROUP             0       ****    0 ROOT    
