@<TRIPOS>MOLECULE
3R137
137   139    1
SMALL
USER_CHARGES


@<TRIPOS>ATOM
      1 CA         23.5574   -5.7443   -3.9085 C.3       0 UNK        -0.2020 
      2 C          24.0742   -4.9446   -2.7228 C.2       0 UNK         0.4855 
      3 O          23.3286   -4.1511   -2.1472 O.2       0 UNK        -0.5197 
      4 N          25.3501   -5.1340   -2.3631 N.am      1 UNK        -0.4892 
      5 CA         26.0607   -4.4229   -1.2942 C.3       1 UNK         0.0835 
      6 C6         27.4866   -4.9914   -1.0523 C.3       12 UNK        -0.0855 
      7 S7         28.4344   -5.3833   -2.5705 S.3       12 UNK        -0.2931 
      8 C8         30.1438   -5.0180   -2.0639 C.3       12 UNK         0.0378 
      9 C9         30.6225   -3.6777   -2.6033 C.ar      12 UNK        -0.0802 
     10 C10        31.2987   -3.6206   -3.8259 C.ar      12 UNK        -0.0944 
     11 C11        31.7876   -2.4052   -4.3143 C.ar      12 UNK        -0.0787 
     12 C12        31.5892   -1.2385   -3.5696 C.ar      12 UNK        -0.0862 
     13 C13        30.9143   -1.2802   -2.3451 C.ar      12 UNK        -0.0733 
     14 C14        30.4275   -2.5033   -1.8699 C.ar      12 UNK        -0.0832 
     15 C15        30.7428   -0.0130   -1.5147 C.3       12 UNK         0.0240 
     16 S16        29.9097    1.3316   -2.4209 S.3       12 UNK        -0.2522 
     17 C17        28.3126    0.5611   -2.8388 C.3       12 UNK        -0.0967 
     18 CA         28.1294    0.3836   -4.3689 C.3       5 UNK         0.0660 
     19 N          27.2774   -0.7677   -4.6789 N.am      5 UNK        -0.4015 
     20 C          26.9603   -1.2089   -5.9048 C.2       4 UNK         0.4946 
     21 O          27.3987   -0.7303   -6.9492 O.2       4 UNK        -0.5353 
     22 CA         25.9202   -2.3368   -5.9801 C.3       4 UNK         0.0277 
     23 CB         26.5667   -3.7088   -5.7315 C.3       4 UNK        -0.1981 
     24 N          24.8208   -2.1140   -5.0384 N.am      4 UNK        -0.4209 
     25 C          23.9092   -1.1380   -5.1676 C.2       3 UNK         0.4942 
     26 O          23.8559   -0.3754   -6.1313 O.2       3 UNK        -0.5208 
     27 CA         22.9243   -0.9442   -4.0040 C.3       3 UNK         0.0250 
     28 CB         21.7100   -1.8741   -4.1519 C.3       3 UNK        -0.1990 
     29 N          23.5611   -1.1458   -2.6994 N.am      3 UNK        -0.4232 
     30 C          24.4672   -0.3020   -2.1805 C.2       2 UNK         0.4993 
     31 O          24.8192    0.7403   -2.7325 O.2       2 UNK        -0.5286 
     32 CA         25.1349   -0.7034   -0.8525 C.3       2 UNK         0.0209 
     33 CB         24.3198   -0.1775    0.3393 C.3       2 UNK        -0.1931 
     34 N          25.3402   -2.1482   -0.7070 N.am      2 UNK        -0.4546 
     35 C          26.0650   -2.9022   -1.5453 C.2       1 UNK         0.5154 
     36 O          26.6640   -2.4449   -2.5185 O.2       1 UNK        -0.5181 
     37 C          27.6203    1.6871   -5.0210 C.2       5 UNK         0.5014 
     38 O          28.4196    2.4410   -5.5757 O.2       5 UNK        -0.5248 
     39 N          26.3020    1.9233   -4.9477 N.am      6 UNK        -0.4434 
     40 CA         25.6289    3.0590   -5.5776 C.3       6 UNK         0.0363 
     41 CB         24.2068    3.1893   -5.0085 C.3       6 UNK        -0.1936 
     42 C          25.5897    2.9633   -7.1130 C.2       6 UNK         0.5081 
     43 O          25.7548    3.9848   -7.7809 O.2       6 UNK        -0.5248 
     44 N          25.3445    1.7579   -7.6454 N.am      7 UNK        -0.4718 
     45 CA         25.2288    1.5007   -9.0825 C.3       7 UNK         0.0273 
     46 CB         24.5426    0.1440   -9.3098 C.3       7 UNK        -0.1935 
     47 C          26.5726    1.5553   -9.8271 C.2       7 UNK         0.5018 
     48 O          26.6325    2.1319  -10.9146 O.2       7 UNK        -0.5186 
     49 N          27.6123    0.9316   -9.2583 N.am      8 UNK        -0.4240 
     50 CA         28.9432    0.8374   -9.8591 C.3       8 UNK         0.0235 
     51 CB         29.7299   -0.2850   -9.1618 C.3       8 UNK        -0.2000 
     52 C          29.7123    2.1646   -9.7662 C.2       8 UNK         0.4941 
     53 O          29.6639    2.8304   -8.7307 O.2       8 UNK        -0.5273 
     54 N          30.4556    2.4985  -10.8301 N.am      9 UNK        -0.4262 
     55 CA         31.3880    3.6323  -10.8531 C.3       9 UNK         0.0264 
     56 CB         31.7239    3.9919  -12.3099 C.3       9 UNK        -0.1955 
     57 C          32.6748    3.3456  -10.0564 C.2       9 UNK         0.5031 
     58 O          33.2418    4.2642   -9.4632 O.2       9 UNK        -0.5390 
     59 N          33.0973    2.0772  -10.0530 N.am      10 UNK        -0.4204 
     60 CA         34.2261    1.5166   -9.3203 C.3       10 UNK         0.0237 
     61 CB         35.5555    1.9077   -9.9942 C.3       10 UNK        -0.1985 
     62 C          34.0406   -0.0054   -9.3066 C.2       10 UNK         0.4970 
     63 O          33.3069   -0.5320  -10.1486 O.2       10 UNK        -0.4914 
     64 N          34.7078   -0.6862   -8.3689 N.am      11 UNK        -0.4285 
     65 CA         34.6444   -2.1509   -8.2168 C.3       11 UNK         0.1007 
     66 C          35.3837   -2.9595   -9.3245 C.2       11 UNK         0.5703 
     67 N          36.2101   -2.3441  -10.1623 N.am      11 UNK        -0.7361 
     68 O          35.1973   -4.1697   -9.4275 O.2       11 UNK        -0.4986 
     69 C69        35.0998   -2.6151   -6.8074 C.3       12 UNK        -0.0947 
     70 S70        34.2507   -1.7848   -5.4232 S.3       12 UNK        -0.2240 
     71 C71        32.5351   -2.3577   -5.6402 C.3       12 UNK         0.0194 
     72 H72        22.6665   -6.3031   -3.6234 H         1 UNK         0.0906 
     73 H73        23.2931   -5.0755   -4.7271 H         1 UNK         0.0906 
     74 H74        24.2988   -6.4537   -4.2757 H         1 UNK         0.0906 
     75 H75        25.9316   -5.7685   -2.8936 H         1 UNK         0.3140 
     76 H76        25.4925   -4.5976   -0.3778 H         1 UNK         0.1085 
     77 H77        27.4040   -5.9204   -0.4859 H         1 UNK         0.0836 
     78 H78        28.0632   -4.3183   -0.4150 H         1 UNK         0.0836 
     79 H79        30.7895   -5.8144   -2.4369 H         1 UNK         0.0731 
     80 H80        30.2379   -5.0486   -0.9774 H         1 UNK         0.0731 
     81 H81        31.4524   -4.5289   -4.3926 H         1 UNK         0.1312 
     82 H82        31.9724   -0.2968   -3.9386 H         1 UNK         0.1406 
     83 H83        29.9092   -2.5469   -0.9219 H         1 UNK         0.1631 
     84 H84        31.7269    0.3353   -1.1983 H         1 UNK         0.0717 
     85 H85        30.1820   -0.2178   -0.6014 H         1 UNK         0.0717 
     86 H86        28.2622   -0.4050   -2.3368 H         1 UNK         0.0934 
     87 H87        27.5086    1.1544   -2.3993 H         1 UNK         0.0934 
     88 H88        29.0998    0.1532   -4.8144 H         1 UNK         0.0739 
     89 H89        26.9262   -1.2936   -3.8802 H         1 UNK         0.3093 
     90 H90        25.5044   -2.3395   -6.9899 H         1 UNK         0.0818 
     91 H91        27.3598   -3.8991   -6.4558 H         1 UNK         0.0819 
     92 H92        27.0146   -3.7771   -4.7404 H         1 UNK         0.0819 
     93 H93        25.8400   -4.5150   -5.8285 H         1 UNK         0.0819 
     94 H94        24.8379   -2.6480   -4.1818 H         1 UNK         0.3041 
     95 H95        22.5637    0.0861   -4.0461 H         1 UNK         0.0784 
     96 H96        21.1922   -1.6878   -5.0938 H         1 UNK         0.0793 
     97 H97        21.9964   -2.9255   -4.1426 H         1 UNK         0.0793 
     98 H98        20.9892   -1.7161   -3.3496 H         1 UNK         0.0793 
     99 H99        23.3568   -2.0137   -2.2148 H         1 UNK         0.3024 
    100 H100       26.1176   -0.2285   -0.8283 H         1 UNK         0.1171 
    101 H101       24.8297   -0.3668    1.2841 H         1 UNK         0.0786 
    102 H102       24.1716    0.9010    0.2643 H         1 UNK         0.0786 
    103 H103       23.3330   -0.6393    0.3902 H         1 UNK         0.0786 
    104 H104       24.8430   -2.5995    0.0479 H         1 UNK         0.2977 
    105 H105       25.7233    1.3015   -4.3894 H         1 UNK         0.3127 
    106 H106       26.1818    3.9640   -5.3163 H         1 UNK         0.0770 
    107 H107       23.6069    2.3021   -5.2149 H         1 UNK         0.0814 
    108 H108       23.6882    4.0440   -5.4446 H         1 UNK         0.0814 
    109 H109       24.2240    3.3361   -3.9283 H         1 UNK         0.0814 
    110 H110       25.1643    0.9748   -7.0256 H         1 UNK         0.2983 
    111 H111       24.5875    2.2742   -9.5112 H         1 UNK         0.0947 
    112 H112       25.1114   -0.6744   -8.8670 H         1 UNK         0.0806 
    113 H113       24.4369   -0.0685  -10.3745 H         1 UNK         0.0806 
    114 H114       23.5428    0.1286   -8.8757 H         1 UNK         0.0806 
    115 H115       27.4858    0.4753   -8.3561 H         1 UNK         0.3000 
    116 H116       28.8218    0.5683  -10.9108 H         1 UNK         0.0850 
    117 H117       30.7033   -0.4313   -9.6290 H         1 UNK         0.0810 
    118 H118       29.1991   -1.2357   -9.2163 H         1 UNK         0.0810 
    119 H119       29.9018   -0.0600   -8.1079 H         1 UNK         0.0810 
    120 H120       30.4278    1.9127  -11.6530 H         1 UNK         0.3040 
    121 H121       30.8984    4.4947  -10.3949 H         1 UNK         0.0766 
    122 H122       30.8274    4.2603  -12.8692 H         1 UNK         0.0812 
    123 H123       32.2116    3.1668  -12.8307 H         1 UNK         0.0812 
    124 H124       32.3989    4.8479  -12.3529 H         1 UNK         0.0812 
    125 H125       32.5621    1.3740  -10.5486 H         1 UNK         0.3205 
    126 H126       34.2022    1.8858   -8.2928 H         1 UNK         0.0754 
    127 H127       36.4074    1.4828   -9.4620 H         1 UNK         0.0769 
    128 H128       35.6938    2.9890  -10.0065 H         1 UNK         0.0769 
    129 H129       35.6026    1.5544  -11.0252 H         1 UNK         0.0769 
    130 H130       35.2965   -0.1945   -7.7128 H         1 UNK         0.2981 
    131 H131       33.5942   -2.4306   -8.3185 H         1 UNK         0.0541 
    132 H132       36.6777   -2.8802  -10.8762 H         1 UNK         0.3459 
    133 H133       36.3698   -1.3529  -10.0886 H         1 UNK         0.3459 
    134 H134       34.9523   -3.6905   -6.6909 H         1 UNK         0.0612 
    135 H135       36.1707   -2.4434   -6.6851 H         1 UNK         0.0612 
    136 H136       32.0169   -1.6878   -6.3280 H         1 UNK         0.0624 
    137 H137       32.5383   -3.3432   -6.1084 H         1 UNK         0.0624 
@<TRIPOS>BOND
     1    1    2 1    
     2    1   72 1    
     3    1   73 1    
     4    1   74 1    
     5    2    3 2    
     6    2    4 am   BACKBONE|DICT|INTERRES
     7    4    5 1    
     8    4   75 1    
     9    5    6 1    
    10    5   35 1    
    11    5   76 1    
    12    6    7 1    
    13    6   77 1    
    14    6   78 1    
    15    7    8 1    
    16    8    9 1    
    17    8   79 1    
    18    8   80 1    
    19    9   10 ar   
    20    9   14 ar   
    21   10   11 ar   
    22   10   81 1    
    23   11   12 ar   
    24   11   71 1    
    25   12   13 ar   
    26   12   82 1    
    27   13   14 ar   
    28   13   15 1    
    29   14   83 1    
    30   15   16 1    
    31   15   84 1    
    32   15   85 1    
    33   16   17 1    
    34   17   18 1    
    35   17   86 1    
    36   17   87 1    
    37   18   19 1    
    38   18   37 1    
    39   18   88 1    
    40   19   20 am   BACKBONE|DICT|INTERRES
    41   19   89 1    
    42   20   21 2    
    43   20   22 1    
    44   22   23 1    
    45   22   24 1    
    46   22   90 1    
    47   23   91 1    
    48   23   92 1    
    49   23   93 1    
    50   24   25 am   BACKBONE|DICT|INTERRES
    51   24   94 1    
    52   25   26 2    
    53   25   27 1    
    54   27   28 1    
    55   27   29 1    
    56   27   95 1    
    57   28   96 1    
    58   28   97 1    
    59   28   98 1    
    60   29   30 am   BACKBONE|DICT|INTERRES
    61   29   99 1    
    62   30   31 2    
    63   30   32 1    
    64   32   33 1    
    65   32   34 1    
    66   32  100 1    
    67   33  101 1    
    68   33  102 1    
    69   33  103 1    
    70   34   35 am   BACKBONE|DICT|INTERRES
    71   34  104 1    
    72   35   36 2    
    73   37   38 2    
    74   37   39 am   BACKBONE|DICT|INTERRES
    75   39   40 1    
    76   39  105 1    
    77   40   41 1    
    78   40   42 1    
    79   40  106 1    
    80   41  107 1    
    81   41  108 1    
    82   41  109 1    
    83   42   43 2    
    84   42   44 am   BACKBONE|DICT|INTERRES
    85   44   45 1    
    86   44  110 1    
    87   45   46 1    
    88   45   47 1    
    89   45  111 1    
    90   46  112 1    
    91   46  113 1    
    92   46  114 1    
    93   47   48 2    
    94   47   49 am   BACKBONE|DICT|INTERRES
    95   49   50 1    
    96   49  115 1    
    97   50   51 1    
    98   50   52 1    
    99   50  116 1    
   100   51  117 1    
   101   51  118 1    
   102   51  119 1    
   103   52   53 2    
   104   52   54 am   BACKBONE|DICT|INTERRES
   105   54   55 1    
   106   54  120 1    
   107   55   56 1    
   108   55   57 1    
   109   55  121 1    
   110   56  122 1    
   111   56  123 1    
   112   56  124 1    
   113   57   58 2    
   114   57   59 am   BACKBONE|DICT|INTERRES
   115   59   60 1    
   116   59  125 1    
   117   60   61 1    
   118   60   62 1    
   119   60  126 1    
   120   61  127 1    
   121   61  128 1    
   122   61  129 1    
   123   62   63 2    
   124   62   64 am   BACKBONE|DICT|INTERRES
   125   64   65 1    
   126   64  130 1    
   127   65   66 1    
   128   65   69 1    
   129   65  131 1    
   130   66   67 am   BACKBONE|DICT|INTERRES
   131   66   68 2    
   132   67  132 1    
   133   67  133 1    
   134   69   70 1    
   135   69  134 1    
   136   69  135 1    
   137   70   71 1    
   138   71  136 1    
   139   71  137 1    
@<TRIPOS>SUBSTRUCTURE
     1 UNK         1 GROUP             0       ****    0 ROOT    
