@<TRIPOS>MOLECULE
3R137
137   139    1
SMALL
USER_CHARGES


@<TRIPOS>ATOM
      1 CA         26.2836   -5.6444   -2.5510 C.3       0 UNK        -0.2020 
      2 C          26.2597   -4.1983   -2.0826 C.2       0 UNK         0.4855 
      3 O          25.9015   -3.3158   -2.8600 O.2       0 UNK        -0.5197 
      4 N          26.6192   -3.9518   -0.8145 N.am      1 UNK        -0.4892 
      5 CA         26.7181   -2.6262   -0.1760 C.3       1 UNK         0.0835 
      6 C6         27.9009   -1.7806   -0.7214 C.3       12 UNK        -0.0855 
      7 S7         29.5020   -2.5646   -0.3406 S.3       12 UNK        -0.2931 
      8 C8         30.6338   -1.5516   -1.3513 C.3       12 UNK         0.0378 
      9 C9         30.7583   -1.9398   -2.8271 C.ar      12 UNK        -0.0802 
     10 C10        31.6115   -1.1740   -3.6270 C.ar      12 UNK        -0.0944 
     11 C11        31.8049   -1.4840   -4.9751 C.ar      12 UNK        -0.0787 
     12 C12        31.1498   -2.5878   -5.5247 C.ar      12 UNK        -0.0862 
     13 C13        30.2845   -3.3619   -4.7476 C.ar      12 UNK        -0.0733 
     14 C14        30.0882   -3.0306   -3.4022 C.ar      12 UNK        -0.0832 
     15 C15        29.5982   -4.5832   -5.3494 C.3       12 UNK         0.0240 
     16 S16        28.5950   -4.1961   -6.8228 S.3       12 UNK        -0.2522 
     17 C17        27.2446   -3.2004   -6.1088 C.3       12 UNK        -0.0967 
     18 CA         26.9791   -1.8932   -6.8991 C.3       5 UNK         0.0660 
     19 N          25.6209   -1.3950   -6.6428 N.am      5 UNK        -0.4015 
     20 C          25.0775   -0.2336   -7.0411 C.2       4 UNK         0.4946 
     21 O          25.6906    0.6275   -7.6710 O.2       4 UNK        -0.5353 
     22 CA         23.5994    0.0305   -6.6895 C.3       4 UNK         0.0277 
     23 CB         22.7609    0.1578   -7.9727 C.3       4 UNK        -0.1981 
     24 N          22.9881   -0.9800   -5.8177 N.am      4 UNK        -0.4209 
     25 C          23.2926   -1.1661   -4.5266 C.2       3 UNK         0.4942 
     26 O          24.1200   -0.4811   -3.9211 O.2       3 UNK        -0.5208 
     27 CA         22.5781   -2.3364   -3.8311 C.3       3 UNK         0.0250 
     28 CB         22.8997   -3.6784   -4.5181 C.3       3 UNK        -0.1990 
     29 N          22.9858   -2.4254   -2.4304 N.am      3 UNK        -0.4232 
     30 C          22.3092   -1.9042   -1.3986 C.2       2 UNK         0.4993 
     31 O          21.2318   -1.3179   -1.5177 O.2       2 UNK        -0.5286 
     32 CA         22.9026   -2.0828    0.0121 C.3       2 UNK         0.0209 
     33 CB         22.0218   -3.0249    0.8514 C.3       2 UNK        -0.1931 
     34 N          24.2725   -2.6037    0.0078 N.am      2 UNK        -0.4546 
     35 C          25.3736   -1.8599   -0.1674 C.2       1 UNK         0.5154 
     36 O          25.3476   -0.6356   -0.3051 O.2       1 UNK        -0.5181 
     37 C          28.0848   -0.8456   -6.6531 C.2       5 UNK         0.5014 
     38 O          28.9538   -0.6697   -7.5088 O.2       5 UNK        -0.5248 
     39 N          27.9860   -0.1238   -5.5276 N.am      6 UNK        -0.4434 
     40 CA         28.9150    0.9359   -5.1279 C.3       6 UNK         0.0363 
     41 CB         28.5572    1.4134   -3.7120 C.3       6 UNK        -0.1936 
     42 C          28.9956    2.1239   -6.1048 C.2       6 UNK         0.5081 
     43 O          30.0363    2.7783   -6.1573 O.2       6 UNK        -0.5248 
     44 N          27.9212    2.3760   -6.8635 N.am      7 UNK        -0.4718 
     45 CA         27.8731    3.3892   -7.9173 C.3       7 UNK         0.0273 
     46 CB         26.5084    4.0971   -7.8801 C.3       7 UNK        -0.1935 
     47 C          28.1173    2.7637   -9.2983 C.2       7 UNK         0.5018 
     48 O          28.8420    3.3487  -10.1027 O.2       7 UNK        -0.5186 
     49 N          27.5031    1.5988   -9.5512 N.am      8 UNK        -0.4240 
     50 CA         27.5260    0.8912  -10.8321 C.3       8 UNK         0.0235 
     51 CB         26.4803   -0.2359  -10.8167 C.3       8 UNK        -0.2000 
     52 C          28.9113    0.3458  -11.2090 C.2       8 UNK         0.4941 
     53 O          29.3395    0.5377  -12.3481 O.2       8 UNK        -0.5273 
     54 N          29.5869   -0.3176  -10.2601 N.am      9 UNK        -0.4262 
     55 CA         30.9447   -0.8365  -10.4472 C.3       9 UNK         0.0264 
     56 CB         31.1499   -2.0734   -9.5608 C.3       9 UNK        -0.1955 
     57 C          32.0123    0.2243  -10.1397 C.2       9 UNK         0.5031 
     58 O          33.1231    0.1213  -10.6619 O.2       9 UNK        -0.5390 
     59 N          31.6683    1.2065   -9.2919 N.am      10 UNK        -0.4204 
     60 CA         32.4475    2.3721   -8.8450 C.3       10 UNK         0.0237 
     61 CB         32.7979    3.2925  -10.0300 C.3       10 UNK        -0.1985 
     62 C          33.7003    2.0564   -8.0044 C.2       10 UNK         0.4970 
     63 O          33.9732    2.7888   -7.0533 O.2       10 UNK        -0.4914 
     64 N          34.4312    0.9918   -8.3581 N.am      11 UNK        -0.4285 
     65 CA         35.6663    0.5094   -7.7146 C.3       11 UNK         0.1007 
     66 C          36.8832    1.4788   -7.8429 C.2       11 UNK         0.5703 
     67 N          36.8746    2.4311   -8.7688 N.am      11 UNK        -0.7361 
     68 O          37.8689    1.3492   -7.1202 O.2       11 UNK        -0.4986 
     69 C69        35.4362    0.0128   -6.2567 C.3       12 UNK        -0.0947 
     70 S70        34.3043   -1.4155   -6.1507 S.3       12 UNK        -0.2240 
     71 C71        32.7036   -0.6115   -5.8367 C.3       12 UNK         0.0194 
     72 H72        26.8573   -5.7300   -3.4730 H         1 UNK         0.0906 
     73 H73        25.2693   -5.9890   -2.7501 H         1 UNK         0.0906 
     74 H74        26.7312   -6.3066   -1.8103 H         1 UNK         0.0906 
     75 H75        26.8974   -4.7262   -0.2267 H         1 UNK         0.3140 
     76 H76        26.9220   -2.8174    0.8791 H         1 UNK         0.1085 
     77 H77        27.8075   -1.6307   -1.7986 H         1 UNK         0.0836 
     78 H78        27.9146   -0.7862   -0.2712 H         1 UNK         0.0836 
     79 H79        30.3364   -0.5044   -1.2760 H         1 UNK         0.0731 
     80 H80        31.6250   -1.6194   -0.9006 H         1 UNK         0.0731 
     81 H81        32.1291   -0.3274   -3.1961 H         1 UNK         0.1312 
     82 H82        31.3109   -2.8483   -6.5600 H         1 UNK         0.1406 
     83 H83        29.4267   -3.6419   -2.8057 H         1 UNK         0.1631 
     84 H84        30.3638   -5.3069   -5.6319 H         1 UNK         0.0717 
     85 H85        28.9662   -5.0805   -4.6126 H         1 UNK         0.0717 
     86 H86        26.3568   -3.8348   -6.1177 H         1 UNK         0.0934 
     87 H87        27.4407   -2.9885   -5.0559 H         1 UNK         0.0934 
     88 H88        27.0024   -2.1325   -7.9636 H         1 UNK         0.0739 
     89 H89        25.0256   -2.0114   -6.1117 H         1 UNK         0.3093 
     90 H90        23.5680    0.9889   -6.1669 H         1 UNK         0.0818 
     91 H91        21.7285    0.4267   -7.7486 H         1 UNK         0.0819 
     92 H92        23.1590    0.9359   -8.6260 H         1 UNK         0.0819 
     93 H93        22.7517   -0.7715   -8.5437 H         1 UNK         0.0819 
     94 H94        22.2950   -1.5790   -6.2441 H         1 UNK         0.3041 
     95 H95        21.5019   -2.1629   -3.8975 H         1 UNK         0.0784 
     96 H96        22.5072   -3.7130   -5.5347 H         1 UNK         0.0793 
     97 H97        23.9729   -3.8611   -4.5764 H         1 UNK         0.0793 
     98 H98        22.4517   -4.5134   -3.9789 H         1 UNK         0.0793 
     99 H99        23.9215   -2.7813   -2.2707 H         1 UNK         0.3024 
    100 H100       22.8984   -1.0985    0.4866 H         1 UNK         0.1171 
    101 H101       22.3953   -3.1138    1.8718 H         1 UNK         0.0786 
    102 H102       20.9988   -2.6511    0.9158 H         1 UNK         0.0786 
    103 H103       21.9759   -4.0259    0.4207 H         1 UNK         0.0786 
    104 H104       24.3828   -3.6031    0.1069 H         1 UNK         0.2977 
    105 H105       27.2167   -0.3148   -4.9012 H         1 UNK         0.3127 
    106 H106       29.9110    0.4966   -5.0961 H         1 UNK         0.0770 
    107 H107       27.5520    1.8346   -3.6702 H         1 UNK         0.0814 
    108 H108       29.2501    2.1853   -3.3741 H         1 UNK         0.0814 
    109 H109       28.6111    0.5957   -2.9930 H         1 UNK         0.0814 
    110 H110       27.1236    1.7518   -6.8032 H         1 UNK         0.2983 
    111 H111       28.6463    4.1432   -7.7518 H         1 UNK         0.0947 
    112 H112       26.4444    4.8611   -8.6560 H         1 UNK         0.0806 
    113 H113       26.3477    4.5935   -6.9230 H         1 UNK         0.0806 
    114 H114       25.6834    3.4012   -8.0380 H         1 UNK         0.0806 
    115 H115       26.8959    1.2083   -8.8314 H         1 UNK         0.3000 
    116 H116       27.2356    1.6071  -11.6042 H         1 UNK         0.0850 
    117 H117       25.4795    0.1548  -10.6313 H         1 UNK         0.0810 
    118 H118       26.6960   -0.9767  -10.0470 H         1 UNK         0.0810 
    119 H119       26.4532   -0.7574  -11.7744 H         1 UNK         0.0810 
    120 H120       29.1795   -0.4329   -9.3329 H         1 UNK         0.3040 
    121 H121       31.0742   -1.1462  -11.4865 H         1 UNK         0.0766 
    122 H122       30.4048   -2.8420   -9.7669 H         1 UNK         0.0812 
    123 H123       31.0833   -1.8173   -8.5056 H         1 UNK         0.0812 
    124 H124       32.1328   -2.5162   -9.7272 H         1 UNK         0.0812 
    125 H125       30.7372    1.1507   -8.9034 H         1 UNK         0.3205 
    126 H126       31.7763    2.9322   -8.1927 H         1 UNK         0.0754 
    127 H127       33.4665    2.8078  -10.7420 H         1 UNK         0.0769 
    128 H128       33.2938    4.2008   -9.6848 H         1 UNK         0.0769 
    129 H129       31.9003    3.5985  -10.5682 H         1 UNK         0.0769 
    130 H130       34.1367    0.4906   -9.1935 H         1 UNK         0.2981 
    131 H131       35.9655   -0.3602   -8.3005 H         1 UNK         0.0541 
    132 H132       37.6696    3.0447   -8.8527 H         1 UNK         0.3459 
    133 H133       36.0833    2.5403   -9.3818 H         1 UNK         0.3459 
    134 H134       35.0887    0.8216   -5.6132 H         1 UNK         0.0612 
    135 H135       36.3778   -0.3231   -5.8195 H         1 UNK         0.0612 
    136 H136       32.2118   -0.4054   -6.7878 H         1 UNK         0.0624 
    137 H137       32.8545    0.3562   -5.3565 H         1 UNK         0.0624 
@<TRIPOS>BOND
     1    1    2 1    
     2    1   72 1    
     3    1   73 1    
     4    1   74 1    
     5    2    3 2    
     6    2    4 am   BACKBONE|DICT|INTERRES
     7    4    5 1    
     8    4   75 1    
     9    5    6 1    
    10    5   35 1    
    11    5   76 1    
    12    6    7 1    
    13    6   77 1    
    14    6   78 1    
    15    7    8 1    
    16    8    9 1    
    17    8   79 1    
    18    8   80 1    
    19    9   10 ar   
    20    9   14 ar   
    21   10   11 ar   
    22   10   81 1    
    23   11   12 ar   
    24   11   71 1    
    25   12   13 ar   
    26   12   82 1    
    27   13   14 ar   
    28   13   15 1    
    29   14   83 1    
    30   15   16 1    
    31   15   84 1    
    32   15   85 1    
    33   16   17 1    
    34   17   18 1    
    35   17   86 1    
    36   17   87 1    
    37   18   19 1    
    38   18   37 1    
    39   18   88 1    
    40   19   20 am   BACKBONE|DICT|INTERRES
    41   19   89 1    
    42   20   21 2    
    43   20   22 1    
    44   22   23 1    
    45   22   24 1    
    46   22   90 1    
    47   23   91 1    
    48   23   92 1    
    49   23   93 1    
    50   24   25 am   BACKBONE|DICT|INTERRES
    51   24   94 1    
    52   25   26 2    
    53   25   27 1    
    54   27   28 1    
    55   27   29 1    
    56   27   95 1    
    57   28   96 1    
    58   28   97 1    
    59   28   98 1    
    60   29   30 am   BACKBONE|DICT|INTERRES
    61   29   99 1    
    62   30   31 2    
    63   30   32 1    
    64   32   33 1    
    65   32   34 1    
    66   32  100 1    
    67   33  101 1    
    68   33  102 1    
    69   33  103 1    
    70   34   35 am   BACKBONE|DICT|INTERRES
    71   34  104 1    
    72   35   36 2    
    73   37   38 2    
    74   37   39 am   BACKBONE|DICT|INTERRES
    75   39   40 1    
    76   39  105 1    
    77   40   41 1    
    78   40   42 1    
    79   40  106 1    
    80   41  107 1    
    81   41  108 1    
    82   41  109 1    
    83   42   43 2    
    84   42   44 am   BACKBONE|DICT|INTERRES
    85   44   45 1    
    86   44  110 1    
    87   45   46 1    
    88   45   47 1    
    89   45  111 1    
    90   46  112 1    
    91   46  113 1    
    92   46  114 1    
    93   47   48 2    
    94   47   49 am   BACKBONE|DICT|INTERRES
    95   49   50 1    
    96   49  115 1    
    97   50   51 1    
    98   50   52 1    
    99   50  116 1    
   100   51  117 1    
   101   51  118 1    
   102   51  119 1    
   103   52   53 2    
   104   52   54 am   BACKBONE|DICT|INTERRES
   105   54   55 1    
   106   54  120 1    
   107   55   56 1    
   108   55   57 1    
   109   55  121 1    
   110   56  122 1    
   111   56  123 1    
   112   56  124 1    
   113   57   58 2    
   114   57   59 am   BACKBONE|DICT|INTERRES
   115   59   60 1    
   116   59  125 1    
   117   60   61 1    
   118   60   62 1    
   119   60  126 1    
   120   61  127 1    
   121   61  128 1    
   122   61  129 1    
   123   62   63 2    
   124   62   64 am   BACKBONE|DICT|INTERRES
   125   64   65 1    
   126   64  130 1    
   127   65   66 1    
   128   65   69 1    
   129   65  131 1    
   130   66   67 am   BACKBONE|DICT|INTERRES
   131   66   68 2    
   132   67  132 1    
   133   67  133 1    
   134   69   70 1    
   135   69  134 1    
   136   69  135 1    
   137   70   71 1    
   138   71  136 1    
   139   71  137 1    
@<TRIPOS>SUBSTRUCTURE
     1 UNK         1 GROUP             0       ****    0 ROOT    
