@<TRIPOS>MOLECULE
3R137
137   139    1
SMALL
USER_CHARGES


@<TRIPOS>ATOM
      1 CA         26.0058   -5.6107    2.0996 C.3       0 UNK        -0.2020 
      2 C          26.7592   -4.5392    1.3257 C.2       0 UNK         0.4855 
      3 O          27.4091   -3.6895    1.9351 O.2       0 UNK        -0.5197 
      4 N          26.6813   -4.5791   -0.0112 N.am      1 UNK        -0.4892 
      5 CA         27.3222   -3.6271   -0.9280 C.3       1 UNK         0.0835 
      6 C6         27.2241   -4.1078   -2.3977 C.3       12 UNK        -0.0855 
      7 S7         28.3632   -5.4953   -2.7233 S.3       12 UNK        -0.2931 
      8 C8         28.8061   -5.2250   -4.4785 C.3       12 UNK         0.0378 
      9 C9         29.8027   -4.0975   -4.7706 C.ar      12 UNK        -0.0802 
     10 C10        30.3754   -4.0363   -6.0471 C.ar      12 UNK        -0.0944 
     11 C11        31.2638   -3.0115   -6.3882 C.ar      12 UNK        -0.0787 
     12 C12        31.5728   -2.0299   -5.4445 C.ar      12 UNK        -0.0862 
     13 C13        31.0015   -2.0653   -4.1723 C.ar      12 UNK        -0.0733 
     14 C14        30.1391   -3.1104   -3.8335 C.ar      12 UNK        -0.0832 
     15 C15        31.2784   -0.9454   -3.1813 C.3       12 UNK         0.0240 
     16 S16        30.4757    0.6085   -3.6948 S.3       12 UNK        -0.2522 
     17 C17        28.7102    0.1365   -3.7357 C.3       12 UNK        -0.0967 
     18 CA         28.1875   -0.1779   -5.1619 C.3       5 UNK         0.0660 
     19 N          26.9040   -0.8871   -5.1278 N.am      5 UNK        -0.4015 
     20 C          26.3443   -1.4855   -6.1928 C.2       4 UNK         0.4946 
     21 O          26.8777   -1.5428   -7.2991 O.2       4 UNK        -0.5353 
     22 CA         24.9342   -2.0832   -6.0287 C.3       4 UNK         0.0277 
     23 CB         25.0161   -3.5736   -5.6681 C.3       4 UNK        -0.1981 
     24 N          24.1052   -1.3792   -5.0485 N.am      4 UNK        -0.4209 
     25 C          23.7406   -0.0924   -5.1449 C.2       3 UNK         0.4942 
     26 O          24.0048    0.6189   -6.1143 O.2       3 UNK        -0.5208 
     27 CA         23.0140    0.5265   -3.9364 C.3       3 UNK         0.0250 
     28 CB         21.4932    0.4921   -4.1541 C.3       3 UNK        -0.1990 
     29 N          23.3348   -0.0834   -2.6367 N.am      3 UNK        -0.4232 
     30 C          24.5638   -0.2215   -2.1148 C.2       2 UNK         0.4993 
     31 O          25.5884    0.0931   -2.7227 O.2       2 UNK        -0.5286 
     32 CA         24.6780   -0.8296   -0.7014 C.3       2 UNK         0.0209 
     33 CB         23.3229   -1.0692   -0.0030 C.3       2 UNK        -0.1931 
     34 N          25.4177   -2.0927   -0.7425 N.am      2 UNK        -0.4546 
     35 C          26.7534   -2.2018   -0.7832 C.2       1 UNK         0.5154 
     36 O          27.5281   -1.2485   -0.7004 O.2       1 UNK        -0.5181 
     37 C          28.0953    1.0884   -6.0350 C.2       5 UNK         0.5014 
     38 O          28.9849    1.3315   -6.8524 O.2       5 UNK        -0.5248 
     39 N          26.9999    1.8464   -5.8757 N.am      6 UNK        -0.4434 
     40 CA         26.6927    3.0307   -6.6772 C.3       6 UNK         0.0363 
     41 CB         25.5363    3.8134   -6.0349 C.3       6 UNK        -0.1936 
     42 C          26.3755    2.6733   -8.1372 C.2       6 UNK         0.5081 
     43 O          26.8866    3.3346   -9.0401 O.2       6 UNK        -0.5248 
     44 N          25.5791    1.6145   -8.3479 N.am      7 UNK        -0.4718 
     45 CA         25.2200    1.0933   -9.6719 C.3       7 UNK         0.0273 
     46 CB         24.1649   -0.0134   -9.5253 C.3       7 UNK        -0.1935 
     47 C          26.4315    0.5840  -10.4725 C.2       7 UNK         0.5018 
     48 O          26.5110    0.8393  -11.6745 O.2       7 UNK        -0.5186 
     49 N          27.3666   -0.0906   -9.7894 N.am      8 UNK        -0.4240 
     50 CA         28.6405   -0.5510  -10.3489 C.3       8 UNK         0.0235 
     51 CB         29.1185   -1.7722   -9.5505 C.3       8 UNK        -0.2000 
     52 C          29.7293    0.5415  -10.3937 C.2       8 UNK         0.4941 
     53 O          30.8320    0.2566  -10.8625 O.2       8 UNK        -0.5273 
     54 N          29.4142    1.7559   -9.9169 N.am      9 UNK        -0.4262 
     55 CA         30.2510    2.9601   -9.8992 C.3       9 UNK         0.0264 
     56 CB         30.5000    3.4674  -11.3363 C.3       9 UNK        -0.1955 
     57 C          31.5466    2.8121   -9.0761 C.2       9 UNK         0.5031 
     58 O          32.5859    3.3315   -9.4879 O.2       9 UNK        -0.5390 
     59 N          31.4469    2.1383   -7.9185 N.am      10 UNK        -0.4204 
     60 CA         32.4901    1.9344   -6.9050 C.3       10 UNK         0.0237 
     61 CB         32.7458    3.2475   -6.1365 C.3       10 UNK        -0.1985 
     62 C          33.7826    1.3161   -7.4744 C.2       10 UNK         0.4970 
     63 O          34.8157    1.9853   -7.5385 O.2       10 UNK        -0.4914 
     64 N          33.6876    0.0454   -7.8856 N.am      11 UNK        -0.4285 
     65 CA         34.7759   -0.7509   -8.4815 C.3       11 UNK         0.1007 
     66 C          36.0532   -0.9549   -7.6085 C.2       11 UNK         0.5703 
     67 N          36.0127   -0.7318   -6.2999 N.am      11 UNK        -0.7361 
     68 O          37.1025   -1.3171   -8.1358 O.2       11 UNK        -0.4986 
     69 C69        34.2441   -2.0973   -9.0481 C.3       12 UNK        -0.0947 
     70 S70        33.6487   -3.2567   -7.7642 S.3       12 UNK        -0.2240 
     71 C71        31.8615   -2.9312   -7.7838 C.3       12 UNK         0.0194 
     72 H72        25.4821   -6.3009    1.4385 H         1 UNK         0.0906 
     73 H73        26.6982   -6.1879    2.7118 H         1 UNK         0.0906 
     74 H74        25.2708   -5.1499    2.7591 H         1 UNK         0.0906 
     75 H75        26.1610   -5.3252   -0.4512 H         1 UNK         0.3140 
     76 H76        28.3775   -3.5645   -0.6515 H         1 UNK         0.1085 
     77 H77        26.2081   -4.4331   -2.6256 H         1 UNK         0.0836 
     78 H78        27.4410   -3.2978   -3.0969 H         1 UNK         0.0836 
     79 H79        27.8938   -5.0455   -5.0493 H         1 UNK         0.0731 
     80 H80        29.2219   -6.1606   -4.8557 H         1 UNK         0.0731 
     81 H81        30.1203   -4.7866   -6.7833 H         1 UNK         0.1312 
     82 H82        32.2439   -1.2242   -5.7028 H         1 UNK         0.1406 
     83 H83        29.7191   -3.1261   -2.8401 H         1 UNK         0.1631 
     84 H84        32.3546   -0.7831   -3.1075 H         1 UNK         0.0717 
     85 H85        30.9371   -1.2122   -2.1798 H         1 UNK         0.0717 
     86 H86        28.5731   -0.7317   -3.0914 H         1 UNK         0.0934 
     87 H87        28.1265    0.9334   -3.2708 H         1 UNK         0.0934 
     88 H88        28.8998   -0.8485   -5.6463 H         1 UNK         0.0739 
     89 H89        26.3713   -0.7991   -4.2669 H         1 UNK         0.3093 
     90 H90        24.4324   -2.0023   -6.9939 H         1 UNK         0.0818 
     91 H91        25.6167   -4.1186   -6.3980 H         1 UNK         0.0819 
     92 H92        25.4722   -3.7272   -4.6924 H         1 UNK         0.0819 
     93 H93        24.0284   -4.0347   -5.6552 H         1 UNK         0.0819 
     94 H94        23.8370   -1.8895   -4.2202 H         1 UNK         0.3041 
     95 H95        23.3260    1.5716   -3.8838 H         1 UNK         0.0784 
     96 H96        21.2237    0.9599   -5.1024 H         1 UNK         0.0793 
     97 H97        21.1106   -0.5292   -4.1744 H         1 UNK         0.0793 
     98 H98        20.9662    1.0341   -3.3685 H         1 UNK         0.0793 
     99 H99        22.5483   -0.3769   -2.0753 H         1 UNK         0.3024 
    100 H100       25.2394   -0.1097   -0.1009 H         1 UNK         0.1171 
    101 H101       22.7497   -0.1446    0.0814 H         1 UNK         0.0786 
    102 H102       22.7088   -1.8017   -0.5286 H         1 UNK         0.0786 
    103 H103       23.4712   -1.4378    1.0125 H         1 UNK         0.0786 
    104 H104       24.8698   -2.9388   -0.7991 H         1 UNK         0.2977 
    105 H105       26.2993    1.5521   -5.2101 H         1 UNK         0.3127 
    106 H106       27.5765    3.6727   -6.6775 H         1 UNK         0.0770 
    107 H107       24.6179    3.2272   -5.9953 H         1 UNK         0.0814 
    108 H108       25.3186    4.7186   -6.6034 H         1 UNK         0.0814 
    109 H109       25.7819    4.1217   -5.0186 H         1 UNK         0.0814 
    110 H110       25.1548    1.1584   -7.5432 H         1 UNK         0.2983 
    111 H111       24.7748    1.9158  -10.2360 H         1 UNK         0.0947 
    112 H112       23.8116   -0.3450  -10.5025 H         1 UNK         0.0806 
    113 H113       23.2961    0.3337   -8.9654 H         1 UNK         0.0806 
    114 H114       24.5690   -0.8863   -9.0137 H         1 UNK         0.0806 
    115 H115       27.1943   -0.3225   -8.8141 H         1 UNK         0.3000 
    116 H116       28.4727   -0.8720  -11.3792 H         1 UNK         0.0850 
    117 H117       30.0246   -2.1923   -9.9877 H         1 UNK         0.0810 
    118 H118       28.3675   -2.5624   -9.5453 H         1 UNK         0.0810 
    119 H119       29.3320   -1.5105   -8.5134 H         1 UNK         0.0810 
    120 H120       28.4852    1.8821   -9.5332 H         1 UNK         0.3040 
    121 H121       29.6623    3.7212   -9.3849 H         1 UNK         0.0766 
    122 H122       31.1291    2.7809  -11.9038 H         1 UNK         0.0812 
    123 H123       31.0003    4.4365  -11.3289 H         1 UNK         0.0812 
    124 H124       29.5634    3.5927  -11.8797 H         1 UNK         0.0812 
    125 H125       30.5258    1.7768   -7.6639 H         1 UNK         0.3205 
    126 H126       32.0857    1.2166   -6.1908 H         1 UNK         0.0754 
    127 H127       33.4784    3.0986   -5.3422 H         1 UNK         0.0769 
    128 H128       31.8318    3.6136   -5.6685 H         1 UNK         0.0769 
    129 H129       33.1268    4.0335   -6.7896 H         1 UNK         0.0769 
    130 H130       32.7951   -0.4168   -7.8223 H         1 UNK         0.2981 
    131 H131       35.1169   -0.1692   -9.3399 H         1 UNK         0.0541 
    132 H132       36.8475   -0.8648   -5.7517 H         1 UNK         0.3459 
    133 H133       35.1603   -0.4315   -5.8580 H         1 UNK         0.3459 
    134 H134       35.0306   -2.6014   -9.6125 H         1 UNK         0.0612 
    135 H135       33.4476   -1.9125   -9.7709 H         1 UNK         0.0612 
    136 H136       31.6694   -1.9370   -8.1856 H         1 UNK         0.0624 
    137 H137       31.3809   -3.6396   -8.4600 H         1 UNK         0.0624 
@<TRIPOS>BOND
     1    1    2 1    
     2    1   72 1    
     3    1   73 1    
     4    1   74 1    
     5    2    3 2    
     6    2    4 am   BACKBONE|DICT|INTERRES
     7    4    5 1    
     8    4   75 1    
     9    5    6 1    
    10    5   35 1    
    11    5   76 1    
    12    6    7 1    
    13    6   77 1    
    14    6   78 1    
    15    7    8 1    
    16    8    9 1    
    17    8   79 1    
    18    8   80 1    
    19    9   10 ar   
    20    9   14 ar   
    21   10   11 ar   
    22   10   81 1    
    23   11   12 ar   
    24   11   71 1    
    25   12   13 ar   
    26   12   82 1    
    27   13   14 ar   
    28   13   15 1    
    29   14   83 1    
    30   15   16 1    
    31   15   84 1    
    32   15   85 1    
    33   16   17 1    
    34   17   18 1    
    35   17   86 1    
    36   17   87 1    
    37   18   19 1    
    38   18   37 1    
    39   18   88 1    
    40   19   20 am   BACKBONE|DICT|INTERRES
    41   19   89 1    
    42   20   21 2    
    43   20   22 1    
    44   22   23 1    
    45   22   24 1    
    46   22   90 1    
    47   23   91 1    
    48   23   92 1    
    49   23   93 1    
    50   24   25 am   BACKBONE|DICT|INTERRES
    51   24   94 1    
    52   25   26 2    
    53   25   27 1    
    54   27   28 1    
    55   27   29 1    
    56   27   95 1    
    57   28   96 1    
    58   28   97 1    
    59   28   98 1    
    60   29   30 am   BACKBONE|DICT|INTERRES
    61   29   99 1    
    62   30   31 2    
    63   30   32 1    
    64   32   33 1    
    65   32   34 1    
    66   32  100 1    
    67   33  101 1    
    68   33  102 1    
    69   33  103 1    
    70   34   35 am   BACKBONE|DICT|INTERRES
    71   34  104 1    
    72   35   36 2    
    73   37   38 2    
    74   37   39 am   BACKBONE|DICT|INTERRES
    75   39   40 1    
    76   39  105 1    
    77   40   41 1    
    78   40   42 1    
    79   40  106 1    
    80   41  107 1    
    81   41  108 1    
    82   41  109 1    
    83   42   43 2    
    84   42   44 am   BACKBONE|DICT|INTERRES
    85   44   45 1    
    86   44  110 1    
    87   45   46 1    
    88   45   47 1    
    89   45  111 1    
    90   46  112 1    
    91   46  113 1    
    92   46  114 1    
    93   47   48 2    
    94   47   49 am   BACKBONE|DICT|INTERRES
    95   49   50 1    
    96   49  115 1    
    97   50   51 1    
    98   50   52 1    
    99   50  116 1    
   100   51  117 1    
   101   51  118 1    
   102   51  119 1    
   103   52   53 2    
   104   52   54 am   BACKBONE|DICT|INTERRES
   105   54   55 1    
   106   54  120 1    
   107   55   56 1    
   108   55   57 1    
   109   55  121 1    
   110   56  122 1    
   111   56  123 1    
   112   56  124 1    
   113   57   58 2    
   114   57   59 am   BACKBONE|DICT|INTERRES
   115   59   60 1    
   116   59  125 1    
   117   60   61 1    
   118   60   62 1    
   119   60  126 1    
   120   61  127 1    
   121   61  128 1    
   122   61  129 1    
   123   62   63 2    
   124   62   64 am   BACKBONE|DICT|INTERRES
   125   64   65 1    
   126   64  130 1    
   127   65   66 1    
   128   65   69 1    
   129   65  131 1    
   130   66   67 am   BACKBONE|DICT|INTERRES
   131   66   68 2    
   132   67  132 1    
   133   67  133 1    
   134   69   70 1    
   135   69  134 1    
   136   69  135 1    
   137   70   71 1    
   138   71  136 1    
   139   71  137 1    
@<TRIPOS>SUBSTRUCTURE
     1 UNK         1 GROUP             0       ****    0 ROOT    
