@<TRIPOS>MOLECULE
3R137
137   139    1
SMALL
USER_CHARGES


@<TRIPOS>ATOM
      1 CA         23.4526   -2.7531    0.7355 C.3       0 UNK        -0.2020 
      2 C          24.8014   -2.1927    0.3121 C.2       0 UNK         0.4855 
      3 O          24.9350   -0.9805    0.1419 O.2       0 UNK        -0.5197 
      4 N          25.8074   -3.0620    0.1464 N.am      1 UNK        -0.4892 
      5 CA         27.1712   -2.6807   -0.2358 C.3       1 UNK         0.0835 
      6 C6         28.1795   -3.8329   -0.0032 C.3       12 UNK        -0.0855 
      7 S7         29.8353   -3.1972    0.4293 S.3       12 UNK        -0.2931 
      8 C8         30.9234   -4.1708   -0.6566 C.3       12 UNK         0.0378 
      9 C9         30.8755   -3.6943   -2.1010 C.ar      12 UNK        -0.0802 
     10 C10        31.5807   -2.5513   -2.4875 C.ar      12 UNK        -0.0944 
     11 C11        31.5857   -2.1218   -3.8192 C.ar      12 UNK        -0.0787 
     12 C12        30.8538   -2.8534   -4.7673 C.ar      12 UNK        -0.0862 
     13 C13        30.1637   -4.0117   -4.3971 C.ar      12 UNK        -0.0733 
     14 C14        30.1718   -4.4225   -3.0621 C.ar      12 UNK        -0.0832 
     15 C15        29.4591   -4.8640   -5.4416 C.3       12 UNK         0.0240 
     16 S16        27.6518   -4.7360   -5.3152 S.3       12 UNK        -0.2522 
     17 C17        27.3189   -3.2798   -6.3568 C.3       12 UNK        -0.0967 
     18 CA         25.7995   -3.1142   -6.5919 C.3       5 UNK         0.0660 
     19 N          25.0742   -2.8256   -5.3499 N.am      5 UNK        -0.4015 
     20 C          23.7409   -2.8788   -5.2167 C.2       4 UNK         0.4946 
     21 O          22.9726   -3.2495   -6.1053 O.2       4 UNK        -0.5353 
     22 CA         23.1613   -2.4264   -3.8690 C.3       4 UNK         0.0277 
     23 CB         23.1676   -3.5809   -2.8547 C.3       4 UNK        -0.1981 
     24 N          23.8822   -1.2680   -3.3344 N.am      4 UNK        -0.4209 
     25 C          23.6967   -0.0127   -3.7722 C.2       3 UNK         0.4942 
     26 O          22.8292    0.3046   -4.5863 O.2       3 UNK        -0.5208 
     27 CA         24.6379    1.0792   -3.2329 C.3       3 UNK         0.0250 
     28 CB         24.0087    1.7866   -2.0223 C.3       3 UNK        -0.1990 
     29 N          25.9669    0.5801   -2.8729 N.am      3 UNK        -0.4232 
     30 C          26.8786    0.1426   -3.7544 C.2       2 UNK         0.4993 
     31 O          26.6999    0.1274   -4.9707 O.2       2 UNK        -0.5286 
     32 CA         28.1928   -0.4183   -3.1851 C.3       2 UNK         0.0209 
     33 CB         29.2262    0.7079   -3.0344 C.3       2 UNK        -0.1931 
     34 N          28.0334   -1.1043   -1.8998 N.am      2 UNK        -0.4546 
     35 C          27.2201   -2.1461   -1.6814 C.2       1 UNK         0.5154 
     36 O          26.5066   -2.6526   -2.5532 O.2       1 UNK        -0.5181 
     37 C          25.5069   -2.0627   -7.6814 C.2       5 UNK         0.5014 
     38 O          25.2715   -2.4360   -8.8312 O.2       5 UNK        -0.5248 
     39 N          25.5081   -0.7783   -7.2929 N.am      6 UNK        -0.4434 
     40 CA         25.1399    0.4072   -8.0772 C.3       6 UNK         0.0363 
     41 CB         23.6565    0.3470   -8.4974 C.3       6 UNK        -0.1936 
     42 C          26.0712    0.7218   -9.2652 C.2       6 UNK         0.5081 
     43 O          25.7353    1.5785  -10.0848 O.2       6 UNK        -0.5248 
     44 N          27.2451    0.0799   -9.3311 N.am      7 UNK        -0.4718 
     45 CA         28.2672    0.2694  -10.3662 C.3       7 UNK         0.0273 
     46 CB         29.0919   -1.0248  -10.4919 C.3       7 UNK        -0.1935 
     47 C          29.1341    1.5175  -10.1018 C.2       7 UNK         0.5018 
     48 O          30.3648    1.4221  -10.0662 O.2       7 UNK        -0.5186 
     49 N          28.4616    2.6623   -9.9062 N.am      8 UNK        -0.4240 
     50 CA         29.0052    3.9880   -9.5911 C.3       8 UNK         0.0235 
     51 CB         29.6326    4.6079  -10.8621 C.3       8 UNK        -0.2000 
     52 C          29.9496    3.9469   -8.3706 C.2       8 UNK         0.4941 
     53 O          29.6314    3.2843   -7.3816 O.2       8 UNK        -0.5273 
     54 N          31.0976    4.6262   -8.4720 N.am      9 UNK        -0.4262 
     55 CA         32.2314    4.4933   -7.5538 C.3       9 UNK         0.0264 
     56 CB         32.8448    5.8858   -7.3226 C.3       9 UNK        -0.1955 
     57 C          33.2908    3.5094   -8.0927 C.2       9 UNK         0.5031 
     58 O          34.3168    3.3210   -7.4373 O.2       9 UNK        -0.5390 
     59 N          33.0563    2.9287   -9.2801 N.am      10 UNK        -0.4204 
     60 CA         33.9685    2.0052   -9.9540 C.3       10 UNK         0.0237 
     61 CB         33.6286    1.9445  -11.4527 C.3       10 UNK        -0.1985 
     62 C          33.9390    0.6040   -9.3296 C.2       10 UNK         0.4970 
     63 O          35.0015    0.0042   -9.1628 O.2       10 UNK        -0.4914 
     64 N          32.7334    0.1182   -8.9982 N.am      11 UNK        -0.4285 
     65 CA         32.4791   -1.1832   -8.3537 C.3       11 UNK         0.1007 
     66 C          32.8460   -2.4260   -9.2228 C.2       11 UNK         0.5703 
     67 N          32.9861   -2.2926  -10.5367 N.am      11 UNK        -0.7361 
     68 O          32.9651   -3.5367   -8.7121 O.2       11 UNK        -0.4986 
     69 C69        33.0417   -1.2459   -6.9039 C.3       12 UNK        -0.0947 
     70 S70        32.1273   -0.1228   -5.7931 S.3       12 UNK        -0.2240 
     71 C71        32.4401   -0.8988   -4.1714 C.3       12 UNK         0.0194 
     72 H72        23.3697   -3.8178    0.5166 H         1 UNK         0.0906 
     73 H73        23.3090   -2.6106    1.8065 H         1 UNK         0.0906 
     74 H74        22.6472   -2.2349    0.2153 H         1 UNK         0.0906 
     75 H75        25.6382   -4.0512    0.2612 H         1 UNK         0.3140 
     76 H76        27.4384   -1.8562    0.4302 H         1 UNK         0.1085 
     77 H77        28.2244   -4.5068   -0.8607 H         1 UNK         0.0836 
     78 H78        27.8608   -4.4501    0.8384 H         1 UNK         0.0836 
     79 H79        30.6616   -5.2278   -0.5839 H         1 UNK         0.0731 
     80 H80        31.9470   -4.0892   -0.2875 H         1 UNK         0.0731 
     81 H81        32.1437   -2.0015   -1.7453 H         1 UNK         0.1312 
     82 H82        30.8365   -2.5516   -5.8034 H         1 UNK         0.1406 
     83 H83        29.6422   -5.3222   -2.7791 H         1 UNK         0.1631 
     84 H84        29.7426   -5.9074   -5.2956 H         1 UNK         0.0717 
     85 H85        29.7853   -4.6037   -6.4498 H         1 UNK         0.0717 
     86 H86        27.7473   -2.3936   -5.8857 H         1 UNK         0.0934 
     87 H87        27.8405   -3.4136   -7.3069 H         1 UNK         0.0934 
     88 H88        25.4174   -4.0645   -6.9723 H         1 UNK         0.0739 
     89 H89        25.6354   -2.5872   -4.5402 H         1 UNK         0.3093 
     90 H90        22.1199   -2.1427   -4.0388 H         1 UNK         0.0818 
     91 H91        24.1779   -3.8760   -2.5711 H         1 UNK         0.0819 
     92 H92        22.6246   -3.3097   -1.9513 H         1 UNK         0.0819 
     93 H93        22.6763   -4.4633   -3.2673 H         1 UNK         0.0819 
     94 H94        24.6419   -1.4567   -2.6918 H         1 UNK         0.3041 
     95 H95        24.7653    1.8180   -4.0273 H         1 UNK         0.0784 
     96 H96        23.0352    2.2065   -2.2796 H         1 UNK         0.0793 
     97 H97        23.8564    1.1022   -1.1873 H         1 UNK         0.0793 
     98 H98        24.6330    2.6094   -1.6736 H         1 UNK         0.0793 
     99 H99        26.1823    0.5259   -1.8869 H         1 UNK         0.3024 
    100 H100       28.5780   -1.1508   -3.8974 H         1 UNK         0.1171 
    101 H101       30.1602    0.3355   -2.6168 H         1 UNK         0.0786 
    102 H102       29.4579    1.1543   -4.0028 H         1 UNK         0.0786 
    103 H103       28.8659    1.5051   -2.3829 H         1 UNK         0.0786 
    104 H104       28.6011   -0.7661   -1.1358 H         1 UNK         0.2977 
    105 H105       25.8169   -0.5653   -6.3429 H         1 UNK         0.3127 
    106 H106       25.2483    1.2494   -7.3921 H         1 UNK         0.0770 
    107 H107       23.4752   -0.4372   -9.2330 H         1 UNK         0.0814 
    108 H108       23.3351    1.2895   -8.9423 H         1 UNK         0.0814 
    109 H109       23.0106    0.1590   -7.6392 H         1 UNK         0.0814 
    110 H110       27.4619   -0.5743   -8.5941 H         1 UNK         0.2983 
    111 H111       27.7720    0.4343  -11.3258 H         1 UNK         0.0947 
    112 H112       29.8903   -0.9190  -11.2279 H         1 UNK         0.0806 
    113 H113       28.4671   -1.8580  -10.8141 H         1 UNK         0.0806 
    114 H114       29.5490   -1.3027   -9.5443 H         1 UNK         0.0806 
    115 H115       27.4488    2.5954   -9.9376 H         1 UNK         0.3000 
    116 H116       28.1571    4.6089   -9.2978 H         1 UNK         0.0850 
    117 H117       29.9241    5.6467  -10.7021 H         1 UNK         0.0810 
    118 H118       28.9173    4.6107  -11.6850 H         1 UNK         0.0810 
    119 H119       30.5113    4.0559  -11.1990 H         1 UNK         0.0810 
    120 H120       31.2572    5.1753   -9.3051 H         1 UNK         0.3040 
    121 H121       31.8935    4.1063   -6.5901 H         1 UNK         0.0766 
    122 H122       32.1074    6.5816   -6.9220 H         1 UNK         0.0812 
    123 H123       33.2427    6.3113   -8.2445 H         1 UNK         0.0812 
    124 H124       33.6650    5.8385   -6.6049 H         1 UNK         0.0812 
    125 H125       32.1543    3.0664   -9.7134 H         1 UNK         0.3205 
    126 H126       34.9851    2.3925   -9.8549 H         1 UNK         0.0754 
    127 H127       34.3098    1.2748  -11.9794 H         1 UNK         0.0769 
    128 H128       33.7176    2.9259  -11.9185 H         1 UNK         0.0769 
    129 H129       32.6148    1.5823  -11.6277 H         1 UNK         0.0769 
    130 H130       31.9071    0.6614   -9.2352 H         1 UNK         0.2981 
    131 H131       31.3961   -1.2495   -8.2666 H         1 UNK         0.0541 
    132 H132       32.8787   -1.3918  -10.9729 H         1 UNK         0.3459 
    133 H133       33.2098   -3.1019  -11.0933 H         1 UNK         0.3459 
    134 H134       32.9795   -2.2559   -6.4991 H         1 UNK         0.0612 
    135 H135       34.1003   -0.9865   -6.8758 H         1 UNK         0.0612 
    136 H136       32.2959   -0.1315   -3.4104 H         1 UNK         0.0624 
    137 H137       33.4925   -1.1803   -4.1170 H         1 UNK         0.0624 
@<TRIPOS>BOND
     1    1    2 1    
     2    1   72 1    
     3    1   73 1    
     4    1   74 1    
     5    2    3 2    
     6    2    4 am   BACKBONE|DICT|INTERRES
     7    4    5 1    
     8    4   75 1    
     9    5    6 1    
    10    5   35 1    
    11    5   76 1    
    12    6    7 1    
    13    6   77 1    
    14    6   78 1    
    15    7    8 1    
    16    8    9 1    
    17    8   79 1    
    18    8   80 1    
    19    9   10 ar   
    20    9   14 ar   
    21   10   11 ar   
    22   10   81 1    
    23   11   12 ar   
    24   11   71 1    
    25   12   13 ar   
    26   12   82 1    
    27   13   14 ar   
    28   13   15 1    
    29   14   83 1    
    30   15   16 1    
    31   15   84 1    
    32   15   85 1    
    33   16   17 1    
    34   17   18 1    
    35   17   86 1    
    36   17   87 1    
    37   18   19 1    
    38   18   37 1    
    39   18   88 1    
    40   19   20 am   BACKBONE|DICT|INTERRES
    41   19   89 1    
    42   20   21 2    
    43   20   22 1    
    44   22   23 1    
    45   22   24 1    
    46   22   90 1    
    47   23   91 1    
    48   23   92 1    
    49   23   93 1    
    50   24   25 am   BACKBONE|DICT|INTERRES
    51   24   94 1    
    52   25   26 2    
    53   25   27 1    
    54   27   28 1    
    55   27   29 1    
    56   27   95 1    
    57   28   96 1    
    58   28   97 1    
    59   28   98 1    
    60   29   30 am   BACKBONE|DICT|INTERRES
    61   29   99 1    
    62   30   31 2    
    63   30   32 1    
    64   32   33 1    
    65   32   34 1    
    66   32  100 1    
    67   33  101 1    
    68   33  102 1    
    69   33  103 1    
    70   34   35 am   BACKBONE|DICT|INTERRES
    71   34  104 1    
    72   35   36 2    
    73   37   38 2    
    74   37   39 am   BACKBONE|DICT|INTERRES
    75   39   40 1    
    76   39  105 1    
    77   40   41 1    
    78   40   42 1    
    79   40  106 1    
    80   41  107 1    
    81   41  108 1    
    82   41  109 1    
    83   42   43 2    
    84   42   44 am   BACKBONE|DICT|INTERRES
    85   44   45 1    
    86   44  110 1    
    87   45   46 1    
    88   45   47 1    
    89   45  111 1    
    90   46  112 1    
    91   46  113 1    
    92   46  114 1    
    93   47   48 2    
    94   47   49 am   BACKBONE|DICT|INTERRES
    95   49   50 1    
    96   49  115 1    
    97   50   51 1    
    98   50   52 1    
    99   50  116 1    
   100   51  117 1    
   101   51  118 1    
   102   51  119 1    
   103   52   53 2    
   104   52   54 am   BACKBONE|DICT|INTERRES
   105   54   55 1    
   106   54  120 1    
   107   55   56 1    
   108   55   57 1    
   109   55  121 1    
   110   56  122 1    
   111   56  123 1    
   112   56  124 1    
   113   57   58 2    
   114   57   59 am   BACKBONE|DICT|INTERRES
   115   59   60 1    
   116   59  125 1    
   117   60   61 1    
   118   60   62 1    
   119   60  126 1    
   120   61  127 1    
   121   61  128 1    
   122   61  129 1    
   123   62   63 2    
   124   62   64 am   BACKBONE|DICT|INTERRES
   125   64   65 1    
   126   64  130 1    
   127   65   66 1    
   128   65   69 1    
   129   65  131 1    
   130   66   67 am   BACKBONE|DICT|INTERRES
   131   66   68 2    
   132   67  132 1    
   133   67  133 1    
   134   69   70 1    
   135   69  134 1    
   136   69  135 1    
   137   70   71 1    
   138   71  136 1    
   139   71  137 1    
@<TRIPOS>SUBSTRUCTURE
     1 UNK         1 GROUP             0       ****    0 ROOT    
