@<TRIPOS>MOLECULE
3R137
137   139    1
SMALL
USER_CHARGES


@<TRIPOS>ATOM
      1 CA         25.4947   -5.7962   -6.3072 C.3       0 UNK        -0.2020 
      2 C          25.8574   -5.3210   -4.9087 C.2       0 UNK         0.4855 
      3 O          24.9652   -5.0243   -4.1137 O.2       0 UNK        -0.5197 
      4 N          27.1610   -5.2312   -4.6107 N.am      1 UNK        -0.4892 
      5 CA         27.7327   -4.7795   -3.3346 C.3       1 UNK         0.0835 
      6 C6         29.2838   -4.8768   -3.3557 C.3       12 UNK        -0.0855 
      7 S7         30.0087   -5.4759   -1.7918 S.3       12 UNK        -0.2931 
      8 C8         29.9350   -4.0200   -0.6876 C.3       12 UNK         0.0378 
      9 C9         30.5970   -2.7429   -1.2080 C.ar      12 UNK        -0.0802 
     10 C10        31.6836   -2.7623   -2.0941 C.ar      12 UNK        -0.0944 
     11 C11        32.2400   -1.5671   -2.5606 C.ar      12 UNK        -0.0787 
     12 C12        31.7393   -0.3472   -2.1016 C.ar      12 UNK        -0.0862 
     13 C13        30.6623   -0.3107   -1.2145 C.ar      12 UNK        -0.0733 
     14 C14        30.0998   -1.5106   -0.7697 C.ar      12 UNK        -0.0832 
     15 C15        30.0829    1.0249   -0.7658 C.3       12 UNK         0.0240 
     16 S16        29.5015    2.0426   -2.1649 S.3       12 UNK        -0.2522 
     17 C17        28.2570    0.9550   -2.9368 C.3       12 UNK        -0.0967 
     18 CA         28.1540    1.1701   -4.4686 C.3       5 UNK         0.0660 
     19 N          27.7088   -0.0425   -5.1610 N.am      5 UNK        -0.4015 
     20 C          27.5667   -0.1855   -6.4866 C.2       4 UNK         0.4946 
     21 O          27.8816    0.6719   -7.3082 O.2       4 UNK        -0.5353 
     22 CA         26.8846   -1.4714   -6.9788 C.3       4 UNK         0.0277 
     23 CB         27.8909   -2.6230   -7.1194 C.3       4 UNK        -0.1981 
     24 N          25.7796   -1.8624   -6.1013 N.am      4 UNK        -0.4209 
     25 C          24.6207   -1.1922   -6.0127 C.2       3 UNK         0.4942 
     26 O          24.3360   -0.2256   -6.7189 O.2       3 UNK        -0.5208 
     27 CA         23.6335   -1.6437   -4.9239 C.3       3 UNK         0.0250 
     28 CB         22.7042   -2.7485   -5.4498 C.3       3 UNK        -0.1990 
     29 N          24.3145   -2.0958   -3.7070 N.am      3 UNK        -0.4232 
     30 C          24.9520   -1.2679   -2.8647 C.2       2 UNK         0.4993 
     31 O          24.9871   -0.0455   -3.0116 O.2       2 UNK        -0.5286 
     32 CA         25.7303   -1.9066   -1.6974 C.3       2 UNK         0.0209 
     33 CB         24.8187   -2.0869   -0.4741 C.3       2 UNK        -0.1931 
     34 N          26.3570   -3.1900   -2.0375 N.am      2 UNK        -0.4546 
     35 C          27.2649   -3.3458   -3.0107 C.2       1 UNK         0.5154 
     36 O          27.6808   -2.4113   -3.6953 O.2       1 UNK        -0.5181 
     37 C          27.2594    2.3802   -4.8047 C.2       5 UNK         0.5014 
     38 O          27.7768    3.4258   -5.1997 O.2       5 UNK        -0.5248 
     39 N          25.9341    2.1992   -4.6873 N.am      6 UNK        -0.4434 
     40 CA         24.9198    3.1993   -5.0344 C.3       6 UNK         0.0363 
     41 CB         23.5324    2.6899   -4.6132 C.3       6 UNK        -0.1936 
     42 C          24.9271    3.5888   -6.5244 C.2       6 UNK         0.5081 
     43 O          24.7475    4.7648   -6.8416 O.2       6 UNK        -0.5248 
     44 N          25.1538    2.6076   -7.4081 N.am      7 UNK        -0.4718 
     45 CA         25.2877    2.8042   -8.8551 C.3       7 UNK         0.0273 
     46 CB         25.0649    1.4557   -9.5599 C.3       7 UNK        -0.1935 
     47 C          26.6417    3.4057   -9.2821 C.2       7 UNK         0.5018 
     48 O          26.7513    3.8601  -10.4217 O.2       7 UNK        -0.5186 
     49 N          27.6405    3.3713   -8.3861 N.am      8 UNK        -0.4240 
     50 CA         29.0576    3.6899   -8.6014 C.3       8 UNK         0.0235 
     51 CB         29.2527    5.1896   -8.9102 C.3       8 UNK        -0.2000 
     52 C          29.7009    2.7570   -9.6483 C.2       8 UNK         0.4941 
     53 O          30.3883    3.2241  -10.5593 O.2       8 UNK        -0.5273 
     54 N          29.4370    1.4536   -9.5055 N.am      9 UNK        -0.4262 
     55 CA         29.8490    0.3837  -10.4106 C.3       9 UNK         0.0264 
     56 CB         28.5763   -0.2260  -11.0269 C.3       9 UNK        -0.1955 
     57 C          30.6448   -0.6888   -9.6512 C.2       9 UNK         0.5031 
     58 O          30.7042   -0.6638   -8.4203 O.2       9 UNK        -0.5390 
     59 N          31.2275   -1.6273  -10.4119 N.am      10 UNK        -0.4204 
     60 CA         31.9328   -2.8554  -10.0044 C.3       10 UNK         0.0237 
     61 CB         31.0018   -3.7976   -9.2155 C.3       10 UNK        -0.1985 
     62 C          33.2587   -2.6557   -9.2467 C.2       10 UNK         0.4970 
     63 O          34.2173   -3.3760   -9.5278 O.2       10 UNK        -0.4914 
     64 N          33.2944   -1.7111   -8.3030 N.am      11 UNK        -0.4285 
     65 CA         34.4387   -1.4235   -7.4226 C.3       11 UNK         0.1007 
     66 C          35.6642   -0.7707   -8.1274 C.2       11 UNK         0.5703 
     67 N          35.5426   -0.2698   -9.3513 N.am      11 UNK        -0.7361 
     68 O          36.7490   -0.7242   -7.5520 O.2       11 UNK        -0.4986 
     69 C69        34.0109   -0.5903   -6.1865 C.3       12 UNK        -0.0947 
     70 S70        32.6295   -1.3398   -5.2577 S.3       12 UNK        -0.2240 
     71 C71        33.3464   -1.5726   -3.6015 C.3       12 UNK         0.0194 
     72 H72        25.0521   -4.9816   -6.8795 H         1 UNK         0.0906 
     73 H73        26.3647   -6.1610   -6.8528 H         1 UNK         0.0906 
     74 H74        24.7685   -6.6067   -6.2506 H         1 UNK         0.0906 
     75 H75        27.8372   -5.4806   -5.3182 H         1 UNK         0.3140 
     76 H76        27.3454   -5.4541   -2.5680 H         1 UNK         0.1085 
     77 H77        29.5996   -5.6038   -4.1056 H         1 UNK         0.0836 
     78 H78        29.7606   -3.9456   -3.6672 H         1 UNK         0.0836 
     79 H79        30.4095   -4.2866    0.2576 H         1 UNK         0.0731 
     80 H80        28.8866   -3.8279   -0.4549 H         1 UNK         0.0731 
     81 H81        32.0795   -3.7038   -2.4482 H         1 UNK         0.1312 
     82 H82        32.1616    0.5785   -2.4687 H         1 UNK         0.1406 
     83 H83        29.2618   -1.4849   -0.0861 H         1 UNK         0.1631 
     84 H84        30.8481    1.5786   -0.2202 H         1 UNK         0.0717 
     85 H85        29.2542    0.8783   -0.0713 H         1 UNK         0.0717 
     86 H86        28.5365   -0.0792   -2.7399 H         1 UNK         0.0934 
     87 H87        27.2999    1.0984   -2.4329 H         1 UNK         0.0934 
     88 H88        29.1524    1.3791   -4.8594 H         1 UNK         0.0739 
     89 H89        27.5168   -0.8524   -4.5742 H         1 UNK         0.3093 
     90 H90        26.4712   -1.2692   -7.9691 H         1 UNK         0.0818 
     91 H91        27.4109   -3.5322   -7.4802 H         1 UNK         0.0819 
     92 H92        28.6641   -2.3599   -7.8403 H         1 UNK         0.0819 
     93 H93        28.3922   -2.8514   -6.1790 H         1 UNK         0.0819 
     94 H94        25.9633   -2.5984   -5.4356 H         1 UNK         0.3041 
     95 H95        23.0144   -0.7819   -4.6645 H         1 UNK         0.0784 
     96 H96        22.1567   -2.4085   -6.3300 H         1 UNK         0.0793 
     97 H97        23.2548   -3.6441   -5.7361 H         1 UNK         0.0793 
     98 H98        21.9660   -3.0349   -4.7006 H         1 UNK         0.0793 
     99 H99        24.3710   -3.0980   -3.5538 H         1 UNK         0.3024 
    100 H100       26.5291   -1.2127   -1.4271 H         1 UNK         0.1171 
    101 H101       25.3795   -2.4439    0.3900 H         1 UNK         0.0786 
    102 H102       24.3567   -1.1404   -0.1894 H         1 UNK         0.0786 
    103 H103       24.0140   -2.7966   -0.6702 H         1 UNK         0.0786 
    104 H104       26.0158   -4.0065   -1.5501 H         1 UNK         0.2977 
    105 H105       25.5946    1.3220   -4.3007 H         1 UNK         0.3127 
    106 H106       25.1403    4.1007   -4.4588 H         1 UNK         0.0770 
    107 H107       23.2582    1.7790   -5.1461 H         1 UNK         0.0814 
    108 H108       22.7634    3.4346   -4.8226 H         1 UNK         0.0814 
    109 H109       23.4952    2.4759   -3.5449 H         1 UNK         0.0814 
    110 H110       25.2231    1.6531   -7.0700 H         1 UNK         0.2983 
    111 H111       24.5077    3.4947   -9.1833 H         1 UNK         0.0947 
    112 H112       25.8256    0.7270   -9.2789 H         1 UNK         0.0806 
    113 H113       25.1061    1.5677  -10.6442 H         1 UNK         0.0806 
    114 H114       24.0901    1.0342   -9.3138 H         1 UNK         0.0806 
    115 H115       27.4355    2.9333   -7.4956 H         1 UNK         0.3000 
    116 H116       29.5602    3.4793   -7.6559 H         1 UNK         0.0850 
    117 H117       28.7978    5.8137   -8.1410 H         1 UNK         0.0810 
    118 H118       28.8174    5.4682   -9.8702 H         1 UNK         0.0810 
    119 H119       30.3126    5.4435   -8.9493 H         1 UNK         0.0810 
    120 H120       28.9172    1.1478   -8.6806 H         1 UNK         0.3040 
    121 H121       30.4836    0.7780  -11.2068 H         1 UNK         0.0766 
    122 H122       28.8142   -1.0020  -11.7551 H         1 UNK         0.0812 
    123 H123       27.9879    0.5315  -11.5454 H         1 UNK         0.0812 
    124 H124       27.9384   -0.6763  -10.2646 H         1 UNK         0.0812 
    125 H125       31.1471   -1.5134  -11.4134 H         1 UNK         0.3205 
    126 H126       32.1865   -3.3611  -10.9377 H         1 UNK         0.0754 
    127 H127       31.4735   -4.7690   -9.0613 H         1 UNK         0.0769 
    128 H128       30.0655   -3.9716   -9.7458 H         1 UNK         0.0769 
    129 H129       30.7631   -3.3979   -8.2296 H         1 UNK         0.0769 
    130 H130       32.4365   -1.1929   -8.1235 H         1 UNK         0.2981 
    131 H131       34.7948   -2.3864   -7.0515 H         1 UNK         0.0541 
    132 H132       36.3448    0.1461   -9.7975 H         1 UNK         0.3459 
    133 H133       34.6579   -0.3066   -9.8308 H         1 UNK         0.3459 
    134 H134       34.8599   -0.4465   -5.5162 H         1 UNK         0.0612 
    135 H135       33.6967    0.4081   -6.4959 H         1 UNK         0.0612 
    136 H136       34.0537   -0.7724   -3.3790 H         1 UNK         0.0624 
    137 H137       33.9079   -2.5076   -3.5741 H         1 UNK         0.0624 
@<TRIPOS>BOND
     1    1    2 1    
     2    1   72 1    
     3    1   73 1    
     4    1   74 1    
     5    2    3 2    
     6    2    4 am   BACKBONE|DICT|INTERRES
     7    4    5 1    
     8    4   75 1    
     9    5    6 1    
    10    5   35 1    
    11    5   76 1    
    12    6    7 1    
    13    6   77 1    
    14    6   78 1    
    15    7    8 1    
    16    8    9 1    
    17    8   79 1    
    18    8   80 1    
    19    9   10 ar   
    20    9   14 ar   
    21   10   11 ar   
    22   10   81 1    
    23   11   12 ar   
    24   11   71 1    
    25   12   13 ar   
    26   12   82 1    
    27   13   14 ar   
    28   13   15 1    
    29   14   83 1    
    30   15   16 1    
    31   15   84 1    
    32   15   85 1    
    33   16   17 1    
    34   17   18 1    
    35   17   86 1    
    36   17   87 1    
    37   18   19 1    
    38   18   37 1    
    39   18   88 1    
    40   19   20 am   BACKBONE|DICT|INTERRES
    41   19   89 1    
    42   20   21 2    
    43   20   22 1    
    44   22   23 1    
    45   22   24 1    
    46   22   90 1    
    47   23   91 1    
    48   23   92 1    
    49   23   93 1    
    50   24   25 am   BACKBONE|DICT|INTERRES
    51   24   94 1    
    52   25   26 2    
    53   25   27 1    
    54   27   28 1    
    55   27   29 1    
    56   27   95 1    
    57   28   96 1    
    58   28   97 1    
    59   28   98 1    
    60   29   30 am   BACKBONE|DICT|INTERRES
    61   29   99 1    
    62   30   31 2    
    63   30   32 1    
    64   32   33 1    
    65   32   34 1    
    66   32  100 1    
    67   33  101 1    
    68   33  102 1    
    69   33  103 1    
    70   34   35 am   BACKBONE|DICT|INTERRES
    71   34  104 1    
    72   35   36 2    
    73   37   38 2    
    74   37   39 am   BACKBONE|DICT|INTERRES
    75   39   40 1    
    76   39  105 1    
    77   40   41 1    
    78   40   42 1    
    79   40  106 1    
    80   41  107 1    
    81   41  108 1    
    82   41  109 1    
    83   42   43 2    
    84   42   44 am   BACKBONE|DICT|INTERRES
    85   44   45 1    
    86   44  110 1    
    87   45   46 1    
    88   45   47 1    
    89   45  111 1    
    90   46  112 1    
    91   46  113 1    
    92   46  114 1    
    93   47   48 2    
    94   47   49 am   BACKBONE|DICT|INTERRES
    95   49   50 1    
    96   49  115 1    
    97   50   51 1    
    98   50   52 1    
    99   50  116 1    
   100   51  117 1    
   101   51  118 1    
   102   51  119 1    
   103   52   53 2    
   104   52   54 am   BACKBONE|DICT|INTERRES
   105   54   55 1    
   106   54  120 1    
   107   55   56 1    
   108   55   57 1    
   109   55  121 1    
   110   56  122 1    
   111   56  123 1    
   112   56  124 1    
   113   57   58 2    
   114   57   59 am   BACKBONE|DICT|INTERRES
   115   59   60 1    
   116   59  125 1    
   117   60   61 1    
   118   60   62 1    
   119   60  126 1    
   120   61  127 1    
   121   61  128 1    
   122   61  129 1    
   123   62   63 2    
   124   62   64 am   BACKBONE|DICT|INTERRES
   125   64   65 1    
   126   64  130 1    
   127   65   66 1    
   128   65   69 1    
   129   65  131 1    
   130   66   67 am   BACKBONE|DICT|INTERRES
   131   66   68 2    
   132   67  132 1    
   133   67  133 1    
   134   69   70 1    
   135   69  134 1    
   136   69  135 1    
   137   70   71 1    
   138   71  136 1    
   139   71  137 1    
@<TRIPOS>SUBSTRUCTURE
     1 UNK         1 GROUP             0       ****    0 ROOT    
