@<TRIPOS>MOLECULE
3R137
137   139    1
SMALL
USER_CHARGES


@<TRIPOS>ATOM
      1 CA         28.1877   -2.5961   -4.5884 C.3       0 UNK        -0.2020 
      2 C          27.8986   -3.7325   -3.6197 C.2       0 UNK         0.4855 
      3 O          27.3022   -4.7356   -4.0150 O.2       0 UNK        -0.5197 
      4 N          28.3065   -3.5851   -2.3518 N.am      1 UNK        -0.4892 
      5 CA         28.0253   -4.5198   -1.2559 C.3       1 UNK         0.0835 
      6 C6         28.8017   -4.1537    0.0349 C.3       12 UNK        -0.0855 
      7 S7         30.5637   -4.6121   -0.0641 S.3       12 UNK        -0.2931 
      8 C8         31.3985   -2.9928   -0.0383 C.3       12 UNK         0.0378 
      9 C9         31.3054   -2.2742   -1.3766 C.ar      12 UNK        -0.0802 
     10 C10        31.8735   -2.8497   -2.5180 C.ar      12 UNK        -0.0944 
     11 C11        31.8126   -2.1938   -3.7492 C.ar      12 UNK        -0.0787 
     12 C12        31.1837   -0.9492   -3.8350 C.ar      12 UNK        -0.0862 
     13 C13        30.6198   -0.3576   -2.7002 C.ar      12 UNK        -0.0733 
     14 C14        30.6829   -1.0249   -1.4722 C.ar      12 UNK        -0.0832 
     15 C15        29.9660    1.0120   -2.8053 C.3       12 UNK         0.0240 
     16 S16        28.1646    0.9282   -2.5528 S.3       12 UNK        -0.2522 
     17 C17        27.6211    2.4257   -3.4445 C.3       12 UNK        -0.0967 
     18 CA         26.8031    2.0505   -4.7074 C.3       5 UNK         0.0660 
     19 N          25.5033    1.4712   -4.3495 N.am      5 UNK        -0.4015 
     20 C          24.7786    0.6472   -5.1144 C.2       4 UNK         0.4946 
     21 O          25.0987    0.3089   -6.2569 O.2       4 UNK        -0.5353 
     22 CA         23.4512    0.1472   -4.5229 C.3       4 UNK         0.0277 
     23 CB         22.2656    0.8925   -5.1576 C.3       4 UNK        -0.1981 
     24 N          23.2898   -1.2927   -4.7318 N.am      4 UNK        -0.4209 
     25 C          24.0504   -2.2242   -4.1431 C.2       3 UNK         0.4942 
     26 O          24.9293   -1.9657   -3.3175 O.2       3 UNK        -0.5208 
     27 CA         23.7937   -3.6791   -4.5672 C.3       3 UNK         0.0250 
     28 CB         24.4520   -3.9784   -5.9250 C.3       3 UNK        -0.1990 
     29 N          24.3219   -4.6043   -3.5641 N.am      3 UNK        -0.4232 
     30 C          23.6559   -4.9852   -2.4646 C.2       2 UNK         0.4993 
     31 O          22.4805   -4.6900   -2.2419 O.2       2 UNK        -0.5286 
     32 CA         24.4129   -5.8455   -1.4363 C.3       2 UNK         0.0209 
     33 CB         24.0925   -7.3354   -1.6409 C.3       2 UNK        -0.1931 
     34 N          25.8640   -5.6543   -1.4890 N.am      2 UNK        -0.4546 
     35 C          26.5070   -4.5904   -0.9884 C.2       1 UNK         0.5154 
     36 O          25.9544   -3.6912   -0.3513 O.2       1 UNK        -0.5181 
     37 C          26.6496    3.2232   -5.7016 C.2       5 UNK         0.5014 
     38 O          27.0642    4.3479   -5.4128 O.2       5 UNK        -0.5248 
     39 N          26.0607    2.9299   -6.8663 N.am      6 UNK        -0.4434 
     40 CA         26.0642    3.7825   -8.0540 C.3       6 UNK         0.0363 
     41 CB         24.9526    3.3020   -9.0020 C.3       6 UNK        -0.1936 
     42 C          27.4324    3.7140   -8.7530 C.2       6 UNK         0.5081 
     43 O          28.2043    2.7875   -8.4982 O.2       6 UNK        -0.5248 
     44 N          27.6952    4.6541   -9.6709 N.am      7 UNK        -0.4718 
     45 CA         28.9454    4.7447  -10.4420 C.3       7 UNK         0.0273 
     46 CB         28.8927    5.9778  -11.3578 C.3       7 UNK        -0.1935 
     47 C          29.2852    3.4817  -11.2583 C.2       7 UNK         0.5018 
     48 O          30.4628    3.1618  -11.4163 O.2       7 UNK        -0.5186 
     49 N          28.2520    2.7619  -11.7166 N.am      8 UNK        -0.4240 
     50 CA         28.3690    1.4703  -12.3987 C.3       8 UNK         0.0235 
     51 CB         27.0341    1.1513  -13.0921 C.3       8 UNK        -0.2000 
     52 C          28.7804    0.3086  -11.4712 C.2       8 UNK         0.4941 
     53 O          29.2655   -0.7058  -11.9733 O.2       8 UNK        -0.5273 
     54 N          28.5768    0.4605  -10.1549 N.am      9 UNK        -0.4262 
     55 CA         28.8850   -0.5376   -9.1275 C.3       9 UNK         0.0264 
     56 CB         27.6628   -0.6824   -8.2045 C.3       9 UNK        -0.1955 
     57 C          30.1350   -0.1697   -8.3082 C.2       9 UNK         0.5031 
     58 O          30.4825   -0.9117   -7.3891 O.2       9 UNK        -0.5390 
     59 N          30.7846    0.9595   -8.6233 N.am      10 UNK        -0.4204 
     60 CA         31.9868    1.4510   -7.9547 C.3       10 UNK         0.0237 
     61 CB         32.1655    2.9451   -8.2775 C.3       10 UNK        -0.1985 
     62 C          33.2137    0.6178   -8.3622 C.2       10 UNK         0.4970 
     63 O          33.8360    0.9007   -9.3876 O.2       10 UNK        -0.4914 
     64 N          33.5194   -0.4067   -7.5594 N.am      11 UNK        -0.4285 
     65 CA         34.6657   -1.3141   -7.7273 C.3       11 UNK         0.1007 
     66 C          36.0655   -0.6794   -7.4683 C.2       11 UNK         0.5703 
     67 N          36.1631    0.5118   -6.8891 N.am      11 UNK        -0.7361 
     68 O          37.0824   -1.2768   -7.8138 O.2       11 UNK        -0.4986 
     69 C69        34.4655   -2.6321   -6.9291 C.3       12 UNK        -0.0947 
     70 S70        34.1809   -2.3634   -5.1436 S.3       12 UNK        -0.2240 
     71 C71        32.4285   -2.8237   -4.9870 C.3       12 UNK         0.0194 
     72 H72        29.0019   -2.8632   -5.2617 H         1 UNK         0.0906 
     73 H73        27.3037   -2.3753   -5.1851 H         1 UNK         0.0906 
     74 H74        28.4586   -1.6823   -4.0634 H         1 UNK         0.0906 
     75 H75        28.8135   -2.7504   -2.0918 H         1 UNK         0.3140 
     76 H76        28.3529   -5.5118   -1.5754 H         1 UNK         0.1085 
     77 H77        28.3940   -4.6900    0.8946 H         1 UNK         0.0836 
     78 H78        28.6922   -3.0928    0.2683 H         1 UNK         0.0836 
     79 H79        32.4517   -3.1483    0.1996 H         1 UNK         0.0731 
     80 H80        30.9912   -2.3839    0.7705 H         1 UNK         0.0731 
     81 H81        32.3643   -3.8109   -2.4459 H         1 UNK         0.1312 
     82 H82        31.1351   -0.4416   -4.7888 H         1 UNK         0.1406 
     83 H83        30.2510   -0.5644   -0.5935 H         1 UNK         0.1631 
     84 H84        30.1780    1.4470   -3.7834 H         1 UNK         0.0717 
     85 H85        30.4023    1.6860   -2.0668 H         1 UNK         0.0717 
     86 H86        27.0315    3.0493   -2.7702 H         1 UNK         0.0934 
     87 H87        28.4976    3.0218   -3.7054 H         1 UNK         0.0934 
     88 H88        27.3737    1.2893   -5.2458 H         1 UNK         0.0739 
     89 H89        25.1567    1.7110   -3.4324 H         1 UNK         0.3093 
     90 H90        23.4439    0.3355   -3.4469 H         1 UNK         0.0818 
     91 H91        22.3490    1.9682   -4.9958 H         1 UNK         0.0819 
     92 H92        22.2159    0.7293   -6.2352 H         1 UNK         0.0819 
     93 H93        21.3172    0.5737   -4.7247 H         1 UNK         0.0819 
     94 H94        22.6182   -1.5767   -5.4301 H         1 UNK         0.3041 
     95 H95        22.7160   -3.8275   -4.6655 H         1 UNK         0.0784 
     96 H96        24.0632   -3.3229   -6.7053 H         1 UNK         0.0793 
     97 H97        25.5321   -3.8376   -5.8933 H         1 UNK         0.0793 
     98 H98        24.2597   -5.0043   -6.2395 H         1 UNK         0.0793 
     99 H99        25.3118   -4.8199   -3.6356 H         1 UNK         0.3024 
    100 H100       24.0590   -5.5518   -0.4450 H         1 UNK         0.1171 
    101 H101       24.4275   -7.6912   -2.6160 H         1 UNK         0.0786 
    102 H102       24.5657   -7.9521   -0.8764 H         1 UNK         0.0786 
    103 H103       23.0181   -7.5149   -1.5802 H         1 UNK         0.0786 
    104 H104       26.3898   -6.3256   -2.0317 H         1 UNK         0.2977 
    105 H105       25.7485    1.9700   -6.9911 H         1 UNK         0.3127 
    106 H106       25.8683    4.8152   -7.7578 H         1 UNK         0.0770 
    107 H107       24.8858    3.9346   -9.8879 H         1 UNK         0.0814 
    108 H108       23.9781    3.3301   -8.5139 H         1 UNK         0.0814 
    109 H109       25.1253    2.2795   -9.3417 H         1 UNK         0.0814 
    110 H110       27.0079    5.3759   -9.8380 H         1 UNK         0.2983 
    111 H111       29.7576    4.8865   -9.7255 H         1 UNK         0.0947 
    112 H112       29.8182    6.0817  -11.9262 H         1 UNK         0.0806 
    113 H113       28.7649    6.8952  -10.7828 H         1 UNK         0.0806 
    114 H114       28.0747    5.9136  -12.0764 H         1 UNK         0.0806 
    115 H115       27.3189    3.1049  -11.5407 H         1 UNK         0.3000 
    116 H116       29.1406    1.5606  -13.1666 H         1 UNK         0.0850 
    117 H117       26.7649    1.9248  -13.8117 H         1 UNK         0.0810 
    118 H118       26.2177    1.0588  -12.3746 H         1 UNK         0.0810 
    119 H119       27.0939    0.2096  -13.6400 H         1 UNK         0.0810 
    120 H120       28.2315    1.3488   -9.8016 H         1 UNK         0.3040 
    121 H121       29.0788   -1.5086   -9.5875 H         1 UNK         0.0766 
    122 H122       27.8213   -1.4653   -7.4625 H         1 UNK         0.0812 
    123 H123       26.7661   -0.9465   -8.7648 H         1 UNK         0.0812 
    124 H124       27.4587    0.2414   -7.6626 H         1 UNK         0.0812 
    125 H125       30.4420    1.5088   -9.3988 H         1 UNK         0.3205 
    126 H126       31.8455    1.3614   -6.8752 H         1 UNK         0.0754 
    127 H127       33.0464    3.3494   -7.7774 H         1 UNK         0.0769 
    128 H128       31.3056    3.5263   -7.9431 H         1 UNK         0.0769 
    129 H129       32.2894    3.1187   -9.3473 H         1 UNK         0.0769 
    130 H130       32.9236   -0.5993   -6.7673 H         1 UNK         0.2981 
    131 H131       34.6800   -1.5937   -8.7824 H         1 UNK         0.0541 
    132 H132       35.3372    1.0063   -6.5948 H         1 UNK         0.3459 
    133 H133       37.0750    0.9115   -6.7336 H         1 UNK         0.3459 
    134 H134       35.3282   -3.2907   -7.0450 H         1 UNK         0.0612 
    135 H135       33.6247   -3.1862   -7.3489 H         1 UNK         0.0612 
    136 H136       31.8782   -2.5078   -5.8730 H         1 UNK         0.0624 
    137 H137       32.3432   -3.9105   -4.9444 H         1 UNK         0.0624 
@<TRIPOS>BOND
     1    1    2 1    
     2    1   72 1    
     3    1   73 1    
     4    1   74 1    
     5    2    3 2    
     6    2    4 am   BACKBONE|DICT|INTERRES
     7    4    5 1    
     8    4   75 1    
     9    5    6 1    
    10    5   35 1    
    11    5   76 1    
    12    6    7 1    
    13    6   77 1    
    14    6   78 1    
    15    7    8 1    
    16    8    9 1    
    17    8   79 1    
    18    8   80 1    
    19    9   10 ar   
    20    9   14 ar   
    21   10   11 ar   
    22   10   81 1    
    23   11   12 ar   
    24   11   71 1    
    25   12   13 ar   
    26   12   82 1    
    27   13   14 ar   
    28   13   15 1    
    29   14   83 1    
    30   15   16 1    
    31   15   84 1    
    32   15   85 1    
    33   16   17 1    
    34   17   18 1    
    35   17   86 1    
    36   17   87 1    
    37   18   19 1    
    38   18   37 1    
    39   18   88 1    
    40   19   20 am   BACKBONE|DICT|INTERRES
    41   19   89 1    
    42   20   21 2    
    43   20   22 1    
    44   22   23 1    
    45   22   24 1    
    46   22   90 1    
    47   23   91 1    
    48   23   92 1    
    49   23   93 1    
    50   24   25 am   BACKBONE|DICT|INTERRES
    51   24   94 1    
    52   25   26 2    
    53   25   27 1    
    54   27   28 1    
    55   27   29 1    
    56   27   95 1    
    57   28   96 1    
    58   28   97 1    
    59   28   98 1    
    60   29   30 am   BACKBONE|DICT|INTERRES
    61   29   99 1    
    62   30   31 2    
    63   30   32 1    
    64   32   33 1    
    65   32   34 1    
    66   32  100 1    
    67   33  101 1    
    68   33  102 1    
    69   33  103 1    
    70   34   35 am   BACKBONE|DICT|INTERRES
    71   34  104 1    
    72   35   36 2    
    73   37   38 2    
    74   37   39 am   BACKBONE|DICT|INTERRES
    75   39   40 1    
    76   39  105 1    
    77   40   41 1    
    78   40   42 1    
    79   40  106 1    
    80   41  107 1    
    81   41  108 1    
    82   41  109 1    
    83   42   43 2    
    84   42   44 am   BACKBONE|DICT|INTERRES
    85   44   45 1    
    86   44  110 1    
    87   45   46 1    
    88   45   47 1    
    89   45  111 1    
    90   46  112 1    
    91   46  113 1    
    92   46  114 1    
    93   47   48 2    
    94   47   49 am   BACKBONE|DICT|INTERRES
    95   49   50 1    
    96   49  115 1    
    97   50   51 1    
    98   50   52 1    
    99   50  116 1    
   100   51  117 1    
   101   51  118 1    
   102   51  119 1    
   103   52   53 2    
   104   52   54 am   BACKBONE|DICT|INTERRES
   105   54   55 1    
   106   54  120 1    
   107   55   56 1    
   108   55   57 1    
   109   55  121 1    
   110   56  122 1    
   111   56  123 1    
   112   56  124 1    
   113   57   58 2    
   114   57   59 am   BACKBONE|DICT|INTERRES
   115   59   60 1    
   116   59  125 1    
   117   60   61 1    
   118   60   62 1    
   119   60  126 1    
   120   61  127 1    
   121   61  128 1    
   122   61  129 1    
   123   62   63 2    
   124   62   64 am   BACKBONE|DICT|INTERRES
   125   64   65 1    
   126   64  130 1    
   127   65   66 1    
   128   65   69 1    
   129   65  131 1    
   130   66   67 am   BACKBONE|DICT|INTERRES
   131   66   68 2    
   132   67  132 1    
   133   67  133 1    
   134   69   70 1    
   135   69  134 1    
   136   69  135 1    
   137   70   71 1    
   138   71  136 1    
   139   71  137 1    
@<TRIPOS>SUBSTRUCTURE
     1 UNK         1 GROUP             0       ****    0 ROOT    
