@<TRIPOS>MOLECULE
3R137
137   139    1
SMALL
USER_CHARGES


@<TRIPOS>ATOM
      1 CA         25.9222    1.2039   -2.3195 C.3       0 UNK        -0.2020 
      2 C          26.8017    1.4092   -1.0912 C.2       0 UNK         0.4855 
      3 O          26.9840    2.5493   -0.6681 O.2       0 UNK        -0.5197 
      4 N          27.3812    0.3613   -0.4897 N.am      1 UNK        -0.4892 
      5 CA         27.2404   -1.0680   -0.8076 C.3       1 UNK         0.0835 
      6 C6         28.3901   -1.8876   -0.1638 C.3       12 UNK        -0.0855 
      7 S7         30.0431   -1.3753   -0.7469 S.3       12 UNK        -0.2931 
      8 C8         30.8039   -2.9689   -1.1935 C.3       12 UNK         0.0378 
      9 C9         30.6540   -3.2954   -2.6740 C.ar      12 UNK        -0.0802 
     10 C10        31.7098   -3.0298   -3.5499 C.ar      12 UNK        -0.0944 
     11 C11        31.6348   -3.4049   -4.8943 C.ar      12 UNK        -0.0787 
     12 C12        30.4743   -4.0226   -5.3723 C.ar      12 UNK        -0.0862 
     13 C13        29.4025   -4.2797   -4.5109 C.ar      12 UNK        -0.0733 
     14 C14        29.4992   -3.9157   -3.1623 C.ar      12 UNK        -0.0832 
     15 C15        28.1656   -5.0104   -5.0142 C.3       12 UNK         0.0240 
     16 S16        26.8143   -3.8683   -5.4369 S.3       12 UNK        -0.2522 
     17 C17        27.0715   -3.5785   -7.2287 C.3       12 UNK        -0.0967 
     18 CA         26.8893   -2.1000   -7.6693 C.3       5 UNK         0.0660 
     19 N          25.6513   -1.5168   -7.1339 N.am      5 UNK        -0.4015 
     20 C          25.2502   -0.2375   -7.1609 C.2       4 UNK         0.4946 
     21 O          25.9006    0.6741   -7.6695 O.2       4 UNK        -0.5353 
     22 CA         23.8985    0.1102   -6.5038 C.3       4 UNK         0.0277 
     23 CB         22.8893    0.5590   -7.5738 C.3       4 UNK        -0.1981 
     24 N          23.2911   -0.9509   -5.6882 N.am      4 UNK        -0.4209 
     25 C          23.8324   -1.4796   -4.5838 C.2       3 UNK         0.4942 
     26 O          24.9492   -1.1705   -4.1580 O.2       3 UNK        -0.5208 
     27 CA         23.0113   -2.5513   -3.8546 C.3       3 UNK         0.0250 
     28 CB         22.7679   -3.7922   -4.7348 C.3       3 UNK        -0.1990 
     29 N          23.7732   -2.9314   -2.6755 N.am      3 UNK        -0.4232 
     30 C          23.3068   -3.3734   -1.5056 C.2       2 UNK         0.4993 
     31 O          22.1177   -3.5996   -1.2785 O.2       2 UNK        -0.5286 
     32 CA         24.3531   -3.6035   -0.4001 C.3       2 UNK         0.0209 
     33 CB         24.6347   -5.1066   -0.2357 C.3       2 UNK        -0.1931 
     34 N          25.6196   -2.9102   -0.6735 N.am      2 UNK        -0.4546 
     35 C          25.8638   -1.6269   -0.3703 C.2       1 UNK         0.5154 
     36 O          25.0579   -0.9134    0.2328 O.2       1 UNK        -0.5181 
     37 C          28.1602   -1.2716   -7.3972 C.2       5 UNK         0.5014 
     38 O          28.9062   -0.9916   -8.3374 O.2       5 UNK        -0.5248 
     39 N          28.3514   -0.8586   -6.1364 N.am      6 UNK        -0.4434 
     40 CA         29.5018   -0.0722   -5.6839 C.3       6 UNK         0.0363 
     41 CB         29.4582    0.0699   -4.1566 C.3       6 UNK        -0.1936 
     42 C          29.6118    1.3103   -6.3489 C.2       6 UNK         0.5081 
     43 O          30.7268    1.7907   -6.5550 O.2       6 UNK        -0.5248 
     44 N          28.4639    1.9165   -6.6785 N.am      7 UNK        -0.4718 
     45 CA         28.3766    3.1970   -7.3769 C.3       7 UNK         0.0273 
     46 CB         27.1078    3.9399   -6.9270 C.3       7 UNK        -0.1935 
     47 C          28.3817    3.0009   -8.8990 C.2       7 UNK         0.5018 
     48 O          29.0786    3.7372   -9.5957 O.2       7 UNK        -0.5186 
     49 N          27.6225    2.0081   -9.3847 N.am      8 UNK        -0.4240 
     50 CA         27.4477    1.6838  -10.8026 C.3       8 UNK         0.0235 
     51 CB         26.3564    0.6119  -10.9556 C.3       8 UNK        -0.2000 
     52 C          28.7462    1.2410  -11.4927 C.2       8 UNK         0.4941 
     53 O          29.0338    1.7156  -12.5922 O.2       8 UNK        -0.5273 
     54 N          29.5180    0.3672  -10.8314 N.am      9 UNK        -0.4262 
     55 CA         30.8424   -0.0608  -11.2926 C.3       9 UNK         0.0264 
     56 CB         31.1069   -1.4923  -10.7981 C.3       9 UNK        -0.1955 
     57 C          31.9648    0.8896  -10.8347 C.2       9 UNK         0.5031 
     58 O          33.1003    0.7263  -11.2830 O.2       9 UNK        -0.5390 
     59 N          31.6412    1.8375   -9.9395 N.am      10 UNK        -0.4204 
     60 CA         32.5306    2.8054   -9.2812 C.3       10 UNK         0.0237 
     61 CB         33.0938    3.8150  -10.3037 C.3       10 UNK        -0.1985 
     62 C          33.6317    2.1516   -8.4191 C.2       10 UNK         0.4970 
     63 O          34.6692    2.7717   -8.1777 O.2       10 UNK        -0.4914 
     64 N          33.3886    0.9135   -7.9757 N.am      11 UNK        -0.4285 
     65 CA         34.2974    0.1037   -7.1585 C.3       11 UNK         0.1007 
     66 C          34.2037    0.3803   -5.6298 C.2       11 UNK         0.5703 
     67 N          33.2124    1.1191   -5.1437 N.am      11 UNK        -0.7361 
     68 O          35.0604   -0.0716   -4.8738 O.2       11 UNK        -0.4986 
     69 C69        34.1563   -1.4006   -7.5105 C.3       12 UNK        -0.0947 
     70 S70        32.4895   -2.0701   -7.1789 S.3       12 UNK        -0.2240 
     71 C71        32.8401   -3.2007   -5.8009 C.3       12 UNK         0.0194 
     72 H72        26.4460    0.6404   -3.0884 H         1 UNK         0.0906 
     73 H73        25.0054    0.6764   -2.0592 H         1 UNK         0.0906 
     74 H74        25.6400    2.1627   -2.7536 H         1 UNK         0.0906 
     75 H75        27.9601    0.5483    0.3161 H         1 UNK         0.3140 
     76 H76        27.3049   -1.1884   -1.8910 H         1 UNK         0.1085 
     77 H77        28.2675   -2.9528   -0.3611 H         1 UNK         0.0836 
     78 H78        28.3693   -1.7853    0.9232 H         1 UNK         0.0836 
     79 H79        31.8629   -2.9198   -0.9348 H         1 UNK         0.0731 
     80 H80        30.3959   -3.7764   -0.5841 H         1 UNK         0.0731 
     81 H81        32.6090   -2.5609   -3.1737 H         1 UNK         0.1312 
     82 H82        30.4178   -4.3213   -6.4101 H         1 UNK         0.1406 
     83 H83        28.6836   -4.1388   -2.4895 H         1 UNK         0.1631 
     84 H84        27.8095   -5.6897   -4.2382 H         1 UNK         0.0717 
     85 H85        28.4073   -5.6417   -5.8706 H         1 UNK         0.0717 
     86 H86        28.0497   -3.9550   -7.5350 H         1 UNK         0.0934 
     87 H87        26.3489   -4.2002   -7.7597 H         1 UNK         0.0934 
     88 H88        26.7643   -2.1027   -8.7535 H         1 UNK         0.0739 
     89 H89        25.0577   -2.1671   -6.6418 H         1 UNK         0.3093 
     90 H90        24.0889    0.9574   -5.8415 H         1 UNK         0.0818 
     91 H91        21.9643    0.9193   -7.1231 H         1 UNK         0.0819 
     92 H92        23.2914    1.3766   -8.1744 H         1 UNK         0.0819 
     93 H93        22.6384   -0.2530   -8.2575 H         1 UNK         0.0819 
     94 H94        22.3766   -1.2685   -5.9770 H         1 UNK         0.3041 
     95 H95        22.0594   -2.1106   -3.5513 H         1 UNK         0.0784 
     96 H96        22.1713   -3.5487   -5.6143 H         1 UNK         0.0793 
     97 H97        23.7046   -4.2297   -5.0827 H         1 UNK         0.0793 
     98 H98        22.2266   -4.5635   -4.1865 H         1 UNK         0.0793 
     99 H99        24.7542   -2.6937   -2.7519 H         1 UNK         0.3024 
    100 H100       23.9286   -3.2288    0.5346 H         1 UNK         0.1171 
    101 H101       23.7188   -5.6514   -0.0021 H         1 UNK         0.0786 
    102 H102       25.3358   -5.2923    0.5783 H         1 UNK         0.0786 
    103 H103       25.0501   -5.5434   -1.1449 H         1 UNK         0.0786 
    104 H104       26.3267   -3.4487   -1.1523 H         1 UNK         0.2977 
    105 H105       27.6780   -1.1420   -5.4379 H         1 UNK         0.3127 
    106 H106       30.3988   -0.6342   -5.9408 H         1 UNK         0.0770 
    107 H107       28.6357    0.7051   -3.8310 H         1 UNK         0.0814 
    108 H108       30.3805    0.5166   -3.7833 H         1 UNK         0.0814 
    109 H109       29.3522   -0.8995   -3.6716 H         1 UNK         0.0814 
    110 H110       27.5957    1.4110   -6.5501 H         1 UNK         0.2983 
    111 H111       29.2394    3.8141   -7.1148 H         1 UNK         0.0947 
    112 H112       27.0251    4.9063   -7.4263 H         1 UNK         0.0806 
    113 H113       27.1215    4.1303   -5.8538 H         1 UNK         0.0806 
    114 H114       26.2021    3.3764   -7.1549 H         1 UNK         0.0806 
    115 H115       27.0581    1.4694   -8.7271 H         1 UNK         0.3000 
    116 H116       27.1034    2.5914  -11.3029 H         1 UNK         0.0850 
    117 H117       26.1887    0.3705  -12.0061 H         1 UNK         0.0810 
    118 H118       25.4058    0.9532  -10.5450 H         1 UNK         0.0810 
    119 H119       26.6263   -0.3131  -10.4455 H         1 UNK         0.0810 
    120 H120       29.2039   -0.0080   -9.9372 H         1 UNK         0.3040 
    121 H121       30.8589   -0.0778  -12.3845 H         1 UNK         0.0766 
    122 H122       32.0724   -1.8584  -11.1496 H         1 UNK         0.0812 
    123 H123       30.3460   -2.1839  -11.1597 H         1 UNK         0.0812 
    124 H124       31.1156   -1.5462   -9.7103 H         1 UNK         0.0812 
    125 H125       30.6697    1.8991   -9.6677 H         1 UNK         0.3205 
    126 H126       31.9011    3.3617   -8.5851 H         1 UNK         0.0754 
    127 H127       33.6327    4.6209   -9.8043 H         1 UNK         0.0769 
    128 H128       32.2944    4.2746  -10.8853 H         1 UNK         0.0769 
    129 H129       33.7874    3.3423  -10.9998 H         1 UNK         0.0769 
    130 H130       32.4898    0.4984   -8.1699 H         1 UNK         0.2981 
    131 H131       35.3161    0.3837   -7.4332 H         1 UNK         0.0541 
    132 H132       32.4729    1.4596   -5.7501 H         1 UNK         0.3459 
    133 H133       33.1749    1.2991   -4.1541 H         1 UNK         0.3459 
    134 H134       34.9138   -1.9889   -6.9901 H         1 UNK         0.0612 
    135 H135       34.3610   -1.5441   -8.5726 H         1 UNK         0.0612 
    136 H136       33.1612   -4.1625   -6.2026 H         1 UNK         0.0624 
    137 H137       33.6787   -2.8139   -5.2200 H         1 UNK         0.0624 
@<TRIPOS>BOND
     1    1    2 1    
     2    1   72 1    
     3    1   73 1    
     4    1   74 1    
     5    2    3 2    
     6    2    4 am   BACKBONE|DICT|INTERRES
     7    4    5 1    
     8    4   75 1    
     9    5    6 1    
    10    5   35 1    
    11    5   76 1    
    12    6    7 1    
    13    6   77 1    
    14    6   78 1    
    15    7    8 1    
    16    8    9 1    
    17    8   79 1    
    18    8   80 1    
    19    9   10 ar   
    20    9   14 ar   
    21   10   11 ar   
    22   10   81 1    
    23   11   12 ar   
    24   11   71 1    
    25   12   13 ar   
    26   12   82 1    
    27   13   14 ar   
    28   13   15 1    
    29   14   83 1    
    30   15   16 1    
    31   15   84 1    
    32   15   85 1    
    33   16   17 1    
    34   17   18 1    
    35   17   86 1    
    36   17   87 1    
    37   18   19 1    
    38   18   37 1    
    39   18   88 1    
    40   19   20 am   BACKBONE|DICT|INTERRES
    41   19   89 1    
    42   20   21 2    
    43   20   22 1    
    44   22   23 1    
    45   22   24 1    
    46   22   90 1    
    47   23   91 1    
    48   23   92 1    
    49   23   93 1    
    50   24   25 am   BACKBONE|DICT|INTERRES
    51   24   94 1    
    52   25   26 2    
    53   25   27 1    
    54   27   28 1    
    55   27   29 1    
    56   27   95 1    
    57   28   96 1    
    58   28   97 1    
    59   28   98 1    
    60   29   30 am   BACKBONE|DICT|INTERRES
    61   29   99 1    
    62   30   31 2    
    63   30   32 1    
    64   32   33 1    
    65   32   34 1    
    66   32  100 1    
    67   33  101 1    
    68   33  102 1    
    69   33  103 1    
    70   34   35 am   BACKBONE|DICT|INTERRES
    71   34  104 1    
    72   35   36 2    
    73   37   38 2    
    74   37   39 am   BACKBONE|DICT|INTERRES
    75   39   40 1    
    76   39  105 1    
    77   40   41 1    
    78   40   42 1    
    79   40  106 1    
    80   41  107 1    
    81   41  108 1    
    82   41  109 1    
    83   42   43 2    
    84   42   44 am   BACKBONE|DICT|INTERRES
    85   44   45 1    
    86   44  110 1    
    87   45   46 1    
    88   45   47 1    
    89   45  111 1    
    90   46  112 1    
    91   46  113 1    
    92   46  114 1    
    93   47   48 2    
    94   47   49 am   BACKBONE|DICT|INTERRES
    95   49   50 1    
    96   49  115 1    
    97   50   51 1    
    98   50   52 1    
    99   50  116 1    
   100   51  117 1    
   101   51  118 1    
   102   51  119 1    
   103   52   53 2    
   104   52   54 am   BACKBONE|DICT|INTERRES
   105   54   55 1    
   106   54  120 1    
   107   55   56 1    
   108   55   57 1    
   109   55  121 1    
   110   56  122 1    
   111   56  123 1    
   112   56  124 1    
   113   57   58 2    
   114   57   59 am   BACKBONE|DICT|INTERRES
   115   59   60 1    
   116   59  125 1    
   117   60   61 1    
   118   60   62 1    
   119   60  126 1    
   120   61  127 1    
   121   61  128 1    
   122   61  129 1    
   123   62   63 2    
   124   62   64 am   BACKBONE|DICT|INTERRES
   125   64   65 1    
   126   64  130 1    
   127   65   66 1    
   128   65   69 1    
   129   65  131 1    
   130   66   67 am   BACKBONE|DICT|INTERRES
   131   66   68 2    
   132   67  132 1    
   133   67  133 1    
   134   69   70 1    
   135   69  134 1    
   136   69  135 1    
   137   70   71 1    
   138   71  136 1    
   139   71  137 1    
@<TRIPOS>SUBSTRUCTURE
     1 UNK         1 GROUP             0       ****    0 ROOT    
