@<TRIPOS>MOLECULE
3R137
137   139    1
SMALL
USER_CHARGES


@<TRIPOS>ATOM
      1 CA         25.6753   -7.3499    1.1855 C.3       0 UNK        -0.2020 
      2 C          25.8107   -5.8369    1.2699 C.2       0 UNK         0.4855 
      3 O          25.1309   -5.2069    2.0803 O.2       0 UNK        -0.5197 
      4 N          26.6869   -5.2508    0.4427 N.am      1 UNK        -0.4892 
      5 CA         26.9256   -3.8032    0.3608 C.3       1 UNK         0.0835 
      6 C6         28.2095   -3.4969   -0.4492 C.3       12 UNK        -0.0855 
      7 S7         28.9442   -1.8737   -0.0533 S.3       12 UNK        -0.2931 
      8 C8         30.6824   -2.1340   -0.5376 C.3       12 UNK         0.0378 
      9 C9         30.8782   -2.0632   -2.0474 C.ar      12 UNK        -0.0802 
     10 C10        31.4382   -0.9229   -2.6338 C.ar      12 UNK        -0.0944 
     11 C11        31.6667   -0.8765   -4.0124 C.ar      12 UNK        -0.0787 
     12 C12        31.3009   -1.9636   -4.8086 C.ar      12 UNK        -0.0862 
     13 C13        30.7190   -3.1002   -4.2411 C.ar      12 UNK        -0.0733 
     14 C14        30.5335   -3.1508   -2.8570 C.ar      12 UNK        -0.0832 
     15 C15        30.3096   -4.2883   -5.1061 C.3       12 UNK         0.0240 
     16 S16        29.3550   -3.8231   -6.5902 S.3       12 UNK        -0.2522 
     17 C17        27.9184   -2.9505   -5.8798 C.3       12 UNK        -0.0967 
     18 CA         27.3560   -1.8764   -6.8445 C.3       5 UNK         0.0660 
     19 N          25.9465   -1.5897   -6.5547 N.am      5 UNK        -0.4015 
     20 C          25.1183   -0.9580   -7.4011 C.2       4 UNK         0.4946 
     21 O          25.4568   -0.5597   -8.5138 O.2       4 UNK        -0.5353 
     22 CA         23.6781   -0.6896   -6.9268 C.3       4 UNK         0.0277 
     23 CB         22.7693   -1.8774   -7.2803 C.3       4 UNK        -0.1981 
     24 N          23.5698   -0.4045   -5.4956 N.am      4 UNK        -0.4209 
     25 C          24.2125    0.5779   -4.8478 C.2       3 UNK         0.4942 
     26 O          24.9255    1.4110   -5.4042 O.2       3 UNK        -0.5208 
     27 CA         24.0887    0.6083   -3.3155 C.3       3 UNK         0.0250 
     28 CB         23.0405    1.6467   -2.8857 C.3       3 UNK        -0.1990 
     29 N          23.7729   -0.6877   -2.7014 N.am      3 UNK        -0.4232 
     30 C          24.5099   -1.8024   -2.8129 C.2       2 UNK         0.4993 
     31 O          25.5142   -1.9022   -3.5252 O.2       2 UNK        -0.5286 
     32 CA         24.0121   -3.0293   -2.0331 C.3       2 UNK         0.0209 
     33 CB         23.4217   -4.0749   -2.9937 C.3       2 UNK        -0.1931 
     34 N          25.0994   -3.6351   -1.2666 N.am      2 UNK        -0.4546 
     35 C          25.7113   -3.0524   -0.2246 C.2       1 UNK         0.5154 
     36 O          25.3451   -1.9873    0.2765 O.2       1 UNK        -0.5181 
     37 C          28.2088   -0.5870   -6.8624 C.2       5 UNK         0.5014 
     38 O          29.0756   -0.4292   -7.7275 O.2       5 UNK        -0.5248 
     39 N          27.9114    0.3357   -5.9357 N.am      6 UNK        -0.4434 
     40 CA         28.5144    1.6661   -5.8774 C.3       6 UNK         0.0363 
     41 CB         28.2510    2.2997   -4.5026 C.3       6 UNK        -0.1936 
     42 C          28.0126    2.5700   -7.0152 C.2       6 UNK         0.5081 
     43 O          28.8241    3.2503   -7.6405 O.2       6 UNK        -0.5248 
     44 N          26.7018    2.5326   -7.2988 N.am      7 UNK        -0.4718 
     45 CA         26.0557    3.2725   -8.3904 C.3       7 UNK         0.0273 
     46 CB         24.5304    3.1278   -8.2829 C.3       7 UNK        -0.1935 
     47 C          26.5417    2.8484   -9.7876 C.2       7 UNK         0.5018 
     48 O          26.6731    3.7023  -10.6649 O.2       7 UNK        -0.5186 
     49 N          26.8452    1.5532   -9.9570 N.am      8 UNK        -0.4240 
     50 CA         27.4943    0.9874  -11.1440 C.3       8 UNK         0.0235 
     51 CB         27.3486   -0.5437  -11.1152 C.3       8 UNK        -0.2000 
     52 C          28.9789    1.3777  -11.2889 C.2       8 UNK         0.4941 
     53 O          29.5581    1.1099  -12.3425 O.2       8 UNK        -0.5273 
     54 N          29.5672    1.9847  -10.2454 N.am      9 UNK        -0.4262 
     55 CA         30.9565    2.4370  -10.1391 C.3       9 UNK         0.0264 
     56 CB         31.2463    3.5783  -11.1375 C.3       9 UNK        -0.1955 
     57 C          31.9724    1.2852  -10.2255 C.2       9 UNK         0.5031 
     58 O          33.0526    1.4639  -10.7919 O.2       9 UNK        -0.5390 
     59 N          31.6369    0.1294   -9.6301 N.am      10 UNK        -0.4204 
     60 CA         32.4959   -1.0621   -9.6029 C.3       10 UNK         0.0237 
     61 CB         31.6937   -2.2554   -9.0652 C.3       10 UNK        -0.1985 
     62 C          33.8121   -0.8728   -8.8204 C.2       10 UNK         0.4970 
     63 O          34.7705   -1.6033   -9.0741 O.2       10 UNK        -0.4914 
     64 N          33.8461    0.1175   -7.9193 N.am      11 UNK        -0.4285 
     65 CA         35.0573    0.6070   -7.2434 C.3       11 UNK         0.1007 
     66 C          35.9506    1.5309   -8.1256 C.2       11 UNK         0.5703 
     67 N          35.5492    1.9207   -9.3307 N.am      11 UNK        -0.7361 
     68 O          37.0484    1.8940   -7.7097 O.2       11 UNK        -0.4986 
     69 C69        34.7125    1.2785   -5.8863 C.3       12 UNK        -0.0947 
     70 S70        34.1498    0.0577   -4.6585 S.3       12 UNK        -0.2240 
     71 C71        32.3518    0.3212   -4.6465 C.3       12 UNK         0.0194 
     72 H72        24.6520   -7.6208    0.9267 H         1 UNK         0.0906 
     73 H73        26.3393   -7.7793    0.4355 H         1 UNK         0.0906 
     74 H74        25.9142   -7.8021    2.1477 H         1 UNK         0.0906 
     75 H75        27.2237   -5.8257   -0.1917 H         1 UNK         0.3140 
     76 H76        27.0677   -3.4450    1.3834 H         1 UNK         0.1085 
     77 H77        28.9624   -4.2564   -0.2323 H         1 UNK         0.0836 
     78 H78        28.0201   -3.5538   -1.5231 H         1 UNK         0.0836 
     79 H79        31.2925   -1.3744   -0.0464 H         1 UNK         0.0731 
     80 H80        31.0390   -3.0926   -0.1578 H         1 UNK         0.0731 
     81 H81        31.7258   -0.0834   -2.0155 H         1 UNK         0.1312 
     82 H82        31.4810   -1.9277   -5.8720 H         1 UNK         0.1406 
     83 H83        30.1218   -4.0434   -2.4088 H         1 UNK         0.1631 
     84 H84        29.7179   -5.0009   -4.5292 H         1 UNK         0.0717 
     85 H85        31.2097   -4.8175   -5.4212 H         1 UNK         0.0717 
     86 H86        27.1604   -3.7096   -5.6790 H         1 UNK         0.0934 
     87 H87        28.1617   -2.5153   -4.9086 H         1 UNK         0.0934 
     88 H88        27.3846   -2.2869   -7.8568 H         1 UNK         0.0739 
     89 H89        25.6144   -1.8376   -5.6284 H         1 UNK         0.3093 
     90 H90        23.3123    0.1880   -7.4616 H         1 UNK         0.0818 
     91 H91        21.7268   -1.6655   -7.0421 H         1 UNK         0.0819 
     92 H92        22.8160   -2.0992   -8.3476 H         1 UNK         0.0819 
     93 H93        23.0596   -2.7833   -6.7463 H         1 UNK         0.0819 
     94 H94        23.0014   -1.0343   -4.9492 H         1 UNK         0.3041 
     95 H95        25.0596    0.9215   -2.9257 H         1 UNK         0.0784 
     96 H96        23.2655    2.6268   -3.3093 H         1 UNK         0.0793 
     97 H97        22.0385    1.3710   -3.2170 H         1 UNK         0.0793 
     98 H98        23.0173    1.7637   -1.8020 H         1 UNK         0.0793 
     99 H99        22.9592   -0.7059   -2.1028 H         1 UNK         0.3024 
    100 H100       23.2341   -2.7218   -1.3304 H         1 UNK         0.1171 
    101 H101       22.5882   -3.6586   -3.5611 H         1 UNK         0.0786 
    102 H102       23.0416   -4.9415   -2.4522 H         1 UNK         0.0786 
    103 H103       24.1620   -4.4271   -3.7136 H         1 UNK         0.0786 
    104 H104       25.4701   -4.5073   -1.6133 H         1 UNK         0.2977 
    105 H105       27.1571    0.1496   -5.2903 H         1 UNK         0.3127 
    106 H106       29.5947    1.5541   -5.9936 H         1 UNK         0.0770 
    107 H107       27.1858    2.4344   -4.3123 H         1 UNK         0.0814 
    108 H108       28.7206    3.2816   -4.4320 H         1 UNK         0.0814 
    109 H109       28.6612    1.6865   -3.6998 H         1 UNK         0.0814 
    110 H110       26.0890    1.9912   -6.6908 H         1 UNK         0.2983 
    111 H111       26.3079    4.3275   -8.2629 H         1 UNK         0.0947 
    112 H112       24.0275    3.7364   -9.0356 H         1 UNK         0.0806 
    113 H113       24.1664    3.4503   -7.3072 H         1 UNK         0.0806 
    114 H114       24.2154    2.0962   -8.4358 H         1 UNK         0.0806 
    115 H115       26.6112    0.8984   -9.2157 H         1 UNK         0.3000 
    116 H116       26.9747    1.3646  -12.0272 H         1 UNK         0.0850 
    117 H117       27.8066   -1.0008  -11.9935 H         1 UNK         0.0810 
    118 H118       26.3001   -0.8417  -11.1080 H         1 UNK         0.0810 
    119 H119       27.8262   -0.9762  -10.2350 H         1 UNK         0.0810 
    120 H120       29.0019    2.1718   -9.4245 H         1 UNK         0.3040 
    121 H121       31.0626    2.8509   -9.1356 H         1 UNK         0.0766 
    122 H122       30.5172    4.3829  -11.0414 H         1 UNK         0.0812 
    123 H123       31.2275    3.2289  -12.1703 H         1 UNK         0.0812 
    124 H124       32.2312    4.0120  -10.9603 H         1 UNK         0.0812 
    125 H125       30.7359    0.0544   -9.1686 H         1 UNK         0.3205 
    126 H126       32.7754   -1.2864  -10.6345 H         1 UNK         0.0754 
    127 H127       32.3089   -3.1543   -9.0058 H         1 UNK         0.0769 
    128 H128       30.8449   -2.4848   -9.7097 H         1 UNK         0.0769 
    129 H129       31.3047   -2.0563   -8.0691 H         1 UNK         0.0769 
    130 H130       33.0129    0.6680   -7.7868 H         1 UNK         0.2981 
    131 H131       35.6857   -0.2592   -7.0266 H         1 UNK         0.0541 
    132 H132       34.6572    1.6336   -9.7211 H         1 UNK         0.3459 
    133 H133       36.1568    2.5123   -9.8743 H         1 UNK         0.3459 
    134 H134       33.9644    2.0631   -6.0129 H         1 UNK         0.0612 
    135 H135       35.5908    1.7642   -5.4571 H         1 UNK         0.0612 
    136 H136       31.9873    0.4606   -5.6652 H         1 UNK         0.0624 
    137 H137       32.1171    1.2358   -4.0998 H         1 UNK         0.0624 
@<TRIPOS>BOND
     1    1    2 1    
     2    1   72 1    
     3    1   73 1    
     4    1   74 1    
     5    2    3 2    
     6    2    4 am   BACKBONE|DICT|INTERRES
     7    4    5 1    
     8    4   75 1    
     9    5    6 1    
    10    5   35 1    
    11    5   76 1    
    12    6    7 1    
    13    6   77 1    
    14    6   78 1    
    15    7    8 1    
    16    8    9 1    
    17    8   79 1    
    18    8   80 1    
    19    9   10 ar   
    20    9   14 ar   
    21   10   11 ar   
    22   10   81 1    
    23   11   12 ar   
    24   11   71 1    
    25   12   13 ar   
    26   12   82 1    
    27   13   14 ar   
    28   13   15 1    
    29   14   83 1    
    30   15   16 1    
    31   15   84 1    
    32   15   85 1    
    33   16   17 1    
    34   17   18 1    
    35   17   86 1    
    36   17   87 1    
    37   18   19 1    
    38   18   37 1    
    39   18   88 1    
    40   19   20 am   BACKBONE|DICT|INTERRES
    41   19   89 1    
    42   20   21 2    
    43   20   22 1    
    44   22   23 1    
    45   22   24 1    
    46   22   90 1    
    47   23   91 1    
    48   23   92 1    
    49   23   93 1    
    50   24   25 am   BACKBONE|DICT|INTERRES
    51   24   94 1    
    52   25   26 2    
    53   25   27 1    
    54   27   28 1    
    55   27   29 1    
    56   27   95 1    
    57   28   96 1    
    58   28   97 1    
    59   28   98 1    
    60   29   30 am   BACKBONE|DICT|INTERRES
    61   29   99 1    
    62   30   31 2    
    63   30   32 1    
    64   32   33 1    
    65   32   34 1    
    66   32  100 1    
    67   33  101 1    
    68   33  102 1    
    69   33  103 1    
    70   34   35 am   BACKBONE|DICT|INTERRES
    71   34  104 1    
    72   35   36 2    
    73   37   38 2    
    74   37   39 am   BACKBONE|DICT|INTERRES
    75   39   40 1    
    76   39  105 1    
    77   40   41 1    
    78   40   42 1    
    79   40  106 1    
    80   41  107 1    
    81   41  108 1    
    82   41  109 1    
    83   42   43 2    
    84   42   44 am   BACKBONE|DICT|INTERRES
    85   44   45 1    
    86   44  110 1    
    87   45   46 1    
    88   45   47 1    
    89   45  111 1    
    90   46  112 1    
    91   46  113 1    
    92   46  114 1    
    93   47   48 2    
    94   47   49 am   BACKBONE|DICT|INTERRES
    95   49   50 1    
    96   49  115 1    
    97   50   51 1    
    98   50   52 1    
    99   50  116 1    
   100   51  117 1    
   101   51  118 1    
   102   51  119 1    
   103   52   53 2    
   104   52   54 am   BACKBONE|DICT|INTERRES
   105   54   55 1    
   106   54  120 1    
   107   55   56 1    
   108   55   57 1    
   109   55  121 1    
   110   56  122 1    
   111   56  123 1    
   112   56  124 1    
   113   57   58 2    
   114   57   59 am   BACKBONE|DICT|INTERRES
   115   59   60 1    
   116   59  125 1    
   117   60   61 1    
   118   60   62 1    
   119   60  126 1    
   120   61  127 1    
   121   61  128 1    
   122   61  129 1    
   123   62   63 2    
   124   62   64 am   BACKBONE|DICT|INTERRES
   125   64   65 1    
   126   64  130 1    
   127   65   66 1    
   128   65   69 1    
   129   65  131 1    
   130   66   67 am   BACKBONE|DICT|INTERRES
   131   66   68 2    
   132   67  132 1    
   133   67  133 1    
   134   69   70 1    
   135   69  134 1    
   136   69  135 1    
   137   70   71 1    
   138   71  136 1    
   139   71  137 1    
@<TRIPOS>SUBSTRUCTURE
     1 UNK         1 GROUP             0       ****    0 ROOT    
