@<TRIPOS>MOLECULE
3R137
137   139    1
SMALL
USER_CHARGES


@<TRIPOS>ATOM
      1 CA         29.0582   -6.0637   -2.7468 C.3       0 UNK        -0.2020 
      2 C          28.5358   -5.2473   -1.5748 C.2       0 UNK         0.4855 
      3 O          27.8834   -5.7956   -0.6864 O.2       0 UNK        -0.5197 
      4 N          28.8255   -3.9401   -1.5653 N.am      1 UNK        -0.4892 
      5 CA         28.4445   -2.9891   -0.5103 C.3       1 UNK         0.0835 
      6 C6         29.2040   -1.6426   -0.6308 C.3       12 UNK        -0.0855 
      7 S7         31.0223   -1.8361   -0.6723 S.3       12 UNK        -0.2931 
      8 C8         31.4764   -1.0055   -2.2309 C.3       12 UNK         0.0378 
      9 C9         31.4229   -1.9475   -3.4282 C.ar      12 UNK        -0.0802 
     10 C10        32.6040   -2.4410   -3.9923 C.ar      12 UNK        -0.0944 
     11 C11        32.5620   -3.2890   -5.1028 C.ar      12 UNK        -0.0787 
     12 C12        31.3201   -3.6776   -5.6168 C.ar      12 UNK        -0.0862 
     13 C13        30.1279   -3.1958   -5.0710 C.ar      12 UNK        -0.0733 
     14 C14        30.1947   -2.3098   -3.9867 C.ar      12 UNK        -0.0832 
     15 C15        28.8108   -3.6739   -5.6923 C.3       12 UNK         0.0240 
     16 S16        27.2815   -3.0193   -4.9391 S.3       12 UNK        -0.2522 
     17 C17        27.3668   -1.2798   -5.4826 C.3       12 UNK        -0.0967 
     18 CA         26.3117   -0.9396   -6.5601 C.3       5 UNK         0.0660 
     19 N          24.9401   -1.1091   -6.0718 N.am      5 UNK        -0.4015 
     20 C          23.8546   -1.1818   -6.8578 C.2       4 UNK         0.4946 
     21 O          23.9049   -1.1168   -8.0869 O.2       4 UNK        -0.5353 
     22 CA         22.4782   -1.3372   -6.1813 C.3       4 UNK         0.0277 
     23 CB         21.9622   -2.7761   -6.3485 C.3       4 UNK        -0.1981 
     24 N          22.4629   -0.9913   -4.7581 N.am      4 UNK        -0.4209 
     25 C          22.6812    0.2292   -4.2469 C.2       3 UNK         0.4942 
     26 O          22.8760    1.2333   -4.9325 O.2       3 UNK        -0.5208 
     27 CA         22.7496    0.3281   -2.7099 C.3       3 UNK         0.0250 
     28 CB         21.3746    0.6999   -2.1323 C.3       3 UNK        -0.1990 
     29 N          23.2373   -0.9014   -2.0660 N.am      3 UNK        -0.4232 
     30 C          24.4567   -1.4222   -2.2650 C.2       2 UNK         0.4993 
     31 O          25.3026   -0.9001   -2.9929 O.2       2 UNK        -0.5286 
     32 CA         24.7418   -2.7854   -1.6200 C.3       2 UNK         0.0209 
     33 CB         24.1442   -3.9100   -2.4836 C.3       2 UNK        -0.1931 
     34 N          26.1837   -3.0080   -1.5078 N.am      2 UNK        -0.4546 
     35 C          26.9212   -2.7336   -0.4241 C.2       1 UNK         0.5154 
     36 O          26.4462   -2.2926    0.6242 O.2       1 UNK        -0.5181 
     37 C          26.5924    0.4639   -7.1328 C.2       5 UNK         0.5014 
     38 O          27.6381    0.6313   -7.7547 O.2       5 UNK        -0.5248 
     39 N          25.6944    1.4435   -6.9370 N.am      6 UNK        -0.4434 
     40 CA         25.8456    2.8445   -7.3585 C.3       6 UNK         0.0363 
     41 CB         24.5787    3.6221   -6.9686 C.3       6 UNK        -0.1936 
     42 C          26.1698    3.0643   -8.8517 C.2       6 UNK         0.5081 
     43 O          26.7699    4.0845   -9.1904 O.2       6 UNK        -0.5248 
     44 N          25.8010    2.1040   -9.7113 N.am      7 UNK        -0.4718 
     45 CA         26.1387    2.0756  -11.1380 C.3       7 UNK         0.0273 
     46 CB         25.2882    0.9960  -11.8270 C.3       7 UNK        -0.1935 
     47 C          27.6370    1.8447  -11.4297 C.2       7 UNK         0.5018 
     48 O          28.0882    2.1874  -12.5234 O.2       7 UNK        -0.5186 
     49 N          28.3786    1.2756  -10.4711 N.am      8 UNK        -0.4240 
     50 CA         29.8153    1.0120  -10.5455 C.3       8 UNK         0.0235 
     51 CB         30.0636   -0.3835  -11.1512 C.3       8 UNK        -0.2000 
     52 C          30.3990    1.1730   -9.1357 C.2       8 UNK         0.4941 
     53 O          30.9557    0.2214   -8.5819 O.2       8 UNK        -0.5273 
     54 N          30.1843    2.3666   -8.5603 N.am      9 UNK        -0.4262 
     55 CA         30.4525    2.7153   -7.1632 C.3       9 UNK         0.0264 
     56 CB         30.1405    4.2042   -6.9422 C.3       9 UNK        -0.1955 
     57 C          31.8874    2.3850   -6.7235 C.2       9 UNK         0.5031 
     58 O          32.8412    2.8475   -7.3549 O.2       9 UNK        -0.5390 
     59 N          31.9984    1.5623   -5.6710 N.am      10 UNK        -0.4204 
     60 CA         33.2385    1.0407   -5.0819 C.3       10 UNK         0.0237 
     61 CB         34.0198    2.1733   -4.3815 C.3       10 UNK        -0.1985 
     62 C          34.1162    0.2331   -6.0635 C.2       10 UNK         0.4970 
     63 O          35.3305    0.1691   -5.8645 O.2       10 UNK        -0.4914 
     64 N          33.5005   -0.3467   -7.1061 N.am      11 UNK        -0.4285 
     65 CA         34.1663   -0.9819   -8.2551 C.3       11 UNK         0.1007 
     66 C          34.9775    0.0150   -9.1440 C.2       11 UNK         0.5703 
     67 N          34.7579    1.3232   -9.0565 N.am      11 UNK        -0.7361 
     68 O          35.7976   -0.3993   -9.9603 O.2       11 UNK        -0.4986 
     69 C69        34.9610   -2.2691   -7.8724 C.3       12 UNK        -0.0947 
     70 S70        33.8795   -3.6995   -7.5383 S.3       12 UNK        -0.2240 
     71 C71        33.8548   -3.8192   -5.7157 C.3       12 UNK         0.0194 
     72 H72        28.2487   -6.2797   -3.4436 H         1 UNK         0.0906 
     73 H73        29.8462   -5.5390   -3.2865 H         1 UNK         0.0906 
     74 H74        29.4681   -7.0101   -2.3949 H         1 UNK         0.0906 
     75 H75        29.4128   -3.5636   -2.2961 H         1 UNK         0.3140 
     76 H76        28.7292   -3.4436    0.4415 H         1 UNK         0.1085 
     77 H77        28.8631   -1.0841   -1.5034 H         1 UNK         0.0836 
     78 H78        28.9712   -1.0082    0.2270 H         1 UNK         0.0836 
     79 H79        30.8348   -0.1398   -2.4016 H         1 UNK         0.0731 
     80 H80        32.4856   -0.6078   -2.1140 H         1 UNK         0.0731 
     81 H81        33.5592   -2.1584   -3.5707 H         1 UNK         0.1312 
     82 H82        31.2816   -4.3581   -6.4566 H         1 UNK         0.1406 
     83 H83        29.2932   -1.8993   -3.5604 H         1 UNK         0.1631 
     84 H84        28.8072   -3.4290   -6.7557 H         1 UNK         0.0717 
     85 H85        28.7734   -4.7621   -5.6290 H         1 UNK         0.0717 
     86 H86        27.2542   -0.6325   -4.6119 H         1 UNK         0.0934 
     87 H87        28.3714   -1.0820   -5.8629 H         1 UNK         0.0934 
     88 H88        26.4511   -1.6363   -7.3897 H         1 UNK         0.0739 
     89 H89        24.8377   -1.1549   -5.0641 H         1 UNK         0.3093 
     90 H90        21.7899   -0.6623   -6.6946 H         1 UNK         0.0818 
     91 H91        20.9520   -2.8855   -5.9535 H         1 UNK         0.0819 
     92 H92        21.9268   -3.0587   -7.4017 H         1 UNK         0.0819 
     93 H93        22.6036   -3.4972   -5.8399 H         1 UNK         0.0819 
     94 H94        22.3064   -1.7507   -4.1121 H         1 UNK         0.3041 
     95 H95        23.4511    1.1296   -2.4680 H         1 UNK         0.0784 
     96 H96        21.0014    1.6229   -2.5785 H         1 UNK         0.0793 
     97 H97        20.6320   -0.0765   -2.3208 H         1 UNK         0.0793 
     98 H98        21.4267    0.8619   -1.0554 H         1 UNK         0.0793 
     99 H99        22.5882   -1.3848   -1.4609 H         1 UNK         0.3024 
    100 H100       24.2812   -2.8126   -0.6296 H         1 UNK         0.1171 
    101 H101       24.3575   -4.8903   -2.0566 H         1 UNK         0.0786 
    102 H102       23.0597   -3.8209   -2.5558 H         1 UNK         0.0786 
    103 H103       24.5424   -3.8962   -3.4995 H         1 UNK         0.0786 
    104 H104       26.6606   -3.3011   -2.3492 H         1 UNK         0.2977 
    105 H105       24.8571    1.2240   -6.4130 H         1 UNK         0.3127 
    106 H106       26.6844    3.2550   -6.7927 H         1 UNK         0.0770 
    107 H107       23.6938    3.2247   -7.4673 H         1 UNK         0.0814 
    108 H108       24.6639    4.6748   -7.2424 H         1 UNK         0.0814 
    109 H109       24.4025    3.5823   -5.8933 H         1 UNK         0.0814 
    110 H110       25.3150    1.2986   -9.3416 H         1 UNK         0.2983 
    111 H111       25.8742    3.0454  -11.5654 H         1 UNK         0.0947 
    112 H112       25.4909    0.9630  -12.8985 H         1 UNK         0.0806 
    113 H113       24.2226    1.1928  -11.7071 H         1 UNK         0.0806 
    114 H114       25.4944    0.0030  -11.4253 H         1 UNK         0.0806 
    115 H115       27.9495    1.0576   -9.5724 H         1 UNK         0.3000 
    116 H116       30.2983    1.7589  -11.1792 H         1 UNK         0.0850 
    117 H117       29.6682   -0.4524  -12.1646 H         1 UNK         0.0810 
    118 H118       29.5964   -1.1679  -10.5543 H         1 UNK         0.0810 
    119 H119       31.1309   -0.6021  -11.2028 H         1 UNK         0.0810 
    120 H120       29.7105    3.0708   -9.1071 H         1 UNK         0.3040 
    121 H121       29.7549    2.1322   -6.5583 H         1 UNK         0.0766 
    122 H122       29.1017    4.4336   -7.1815 H         1 UNK         0.0812 
    123 H123       30.7762    4.8431   -7.5568 H         1 UNK         0.0812 
    124 H124       30.3031    4.4873   -5.9014 H         1 UNK         0.0812 
    125 H125       31.1453    1.2166   -5.2540 H         1 UNK         0.3205 
    126 H126       32.9335    0.3369   -4.3113 H         1 UNK         0.0754 
    127 H127       34.4192    2.8913   -5.0986 H         1 UNK         0.0769 
    128 H128       34.8627    1.7777   -3.8134 H         1 UNK         0.0769 
    129 H129       33.3872    2.7168   -3.6796 H         1 UNK         0.0769 
    130 H130       32.5038   -0.2058   -7.2297 H         1 UNK         0.2981 
    131 H131       33.3529   -1.2918   -8.9120 H         1 UNK         0.0541 
    132 H132       34.0758    1.7037   -8.4077 H         1 UNK         0.3459 
    133 H133       35.2834    1.9465   -9.6477 H         1 UNK         0.3459 
    134 H134       35.6384   -2.0973   -7.0366 H         1 UNK         0.0612 
    135 H135       35.6009   -2.5867   -8.6967 H         1 UNK         0.0612 
    136 H136       34.7239   -3.3093   -5.2980 H         1 UNK         0.0624 
    137 H137       33.9558   -4.8696   -5.4404 H         1 UNK         0.0624 
@<TRIPOS>BOND
     1    1    2 1    
     2    1   72 1    
     3    1   73 1    
     4    1   74 1    
     5    2    3 2    
     6    2    4 am   BACKBONE|DICT|INTERRES
     7    4    5 1    
     8    4   75 1    
     9    5    6 1    
    10    5   35 1    
    11    5   76 1    
    12    6    7 1    
    13    6   77 1    
    14    6   78 1    
    15    7    8 1    
    16    8    9 1    
    17    8   79 1    
    18    8   80 1    
    19    9   10 ar   
    20    9   14 ar   
    21   10   11 ar   
    22   10   81 1    
    23   11   12 ar   
    24   11   71 1    
    25   12   13 ar   
    26   12   82 1    
    27   13   14 ar   
    28   13   15 1    
    29   14   83 1    
    30   15   16 1    
    31   15   84 1    
    32   15   85 1    
    33   16   17 1    
    34   17   18 1    
    35   17   86 1    
    36   17   87 1    
    37   18   19 1    
    38   18   37 1    
    39   18   88 1    
    40   19   20 am   BACKBONE|DICT|INTERRES
    41   19   89 1    
    42   20   21 2    
    43   20   22 1    
    44   22   23 1    
    45   22   24 1    
    46   22   90 1    
    47   23   91 1    
    48   23   92 1    
    49   23   93 1    
    50   24   25 am   BACKBONE|DICT|INTERRES
    51   24   94 1    
    52   25   26 2    
    53   25   27 1    
    54   27   28 1    
    55   27   29 1    
    56   27   95 1    
    57   28   96 1    
    58   28   97 1    
    59   28   98 1    
    60   29   30 am   BACKBONE|DICT|INTERRES
    61   29   99 1    
    62   30   31 2    
    63   30   32 1    
    64   32   33 1    
    65   32   34 1    
    66   32  100 1    
    67   33  101 1    
    68   33  102 1    
    69   33  103 1    
    70   34   35 am   BACKBONE|DICT|INTERRES
    71   34  104 1    
    72   35   36 2    
    73   37   38 2    
    74   37   39 am   BACKBONE|DICT|INTERRES
    75   39   40 1    
    76   39  105 1    
    77   40   41 1    
    78   40   42 1    
    79   40  106 1    
    80   41  107 1    
    81   41  108 1    
    82   41  109 1    
    83   42   43 2    
    84   42   44 am   BACKBONE|DICT|INTERRES
    85   44   45 1    
    86   44  110 1    
    87   45   46 1    
    88   45   47 1    
    89   45  111 1    
    90   46  112 1    
    91   46  113 1    
    92   46  114 1    
    93   47   48 2    
    94   47   49 am   BACKBONE|DICT|INTERRES
    95   49   50 1    
    96   49  115 1    
    97   50   51 1    
    98   50   52 1    
    99   50  116 1    
   100   51  117 1    
   101   51  118 1    
   102   51  119 1    
   103   52   53 2    
   104   52   54 am   BACKBONE|DICT|INTERRES
   105   54   55 1    
   106   54  120 1    
   107   55   56 1    
   108   55   57 1    
   109   55  121 1    
   110   56  122 1    
   111   56  123 1    
   112   56  124 1    
   113   57   58 2    
   114   57   59 am   BACKBONE|DICT|INTERRES
   115   59   60 1    
   116   59  125 1    
   117   60   61 1    
   118   60   62 1    
   119   60  126 1    
   120   61  127 1    
   121   61  128 1    
   122   61  129 1    
   123   62   63 2    
   124   62   64 am   BACKBONE|DICT|INTERRES
   125   64   65 1    
   126   64  130 1    
   127   65   66 1    
   128   65   69 1    
   129   65  131 1    
   130   66   67 am   BACKBONE|DICT|INTERRES
   131   66   68 2    
   132   67  132 1    
   133   67  133 1    
   134   69   70 1    
   135   69  134 1    
   136   69  135 1    
   137   70   71 1    
   138   71  136 1    
   139   71  137 1    
@<TRIPOS>SUBSTRUCTURE
     1 UNK         1 GROUP             0       ****    0 ROOT    
