@<TRIPOS>MOLECULE
3R137
137   139    1
SMALL
USER_CHARGES


@<TRIPOS>ATOM
      1 CA         26.1364   -6.2888   -3.6964 C.3       0 UNK        -0.2020 
      2 C          26.1666   -5.8233   -2.2490 C.2       0 UNK         0.4855 
      3 O          25.2645   -6.1571   -1.4804 O.2       0 UNK        -0.5197 
      4 N          27.2008   -5.0605   -1.8696 N.am      1 UNK        -0.4892 
      5 CA         27.3814   -4.5276   -0.5107 C.3       1 UNK         0.0835 
      6 C6         28.8592   -4.1812   -0.2007 C.3       12 UNK        -0.0855 
      7 S7         29.9121   -5.6745   -0.2232 S.3       12 UNK        -0.2931 
      8 C8         31.5224   -5.0117   -0.7814 C.3       12 UNK         0.0378 
      9 C9         31.5533   -4.4527   -2.2054 C.ar      12 UNK        -0.0802 
     10 C10        32.5672   -3.5501   -2.5488 C.ar      12 UNK        -0.0944 
     11 C11        32.6326   -3.0072   -3.8351 C.ar      12 UNK        -0.0787 
     12 C12        31.6738   -3.3661   -4.7812 C.ar      12 UNK        -0.0862 
     13 C13        30.6397   -4.2416   -4.4501 C.ar      12 UNK        -0.0733 
     14 C14        30.6059   -4.8113   -3.1749 C.ar      12 UNK        -0.0832 
     15 C15        29.5361   -4.5320   -5.4557 C.3       12 UNK         0.0240 
     16 S16        28.0384   -3.5611   -5.0805 S.3       12 UNK        -0.2522 
     17 C17        28.5894   -1.8456   -5.3858 C.3       12 UNK        -0.0967 
     18 CA         27.7702   -1.1551   -6.4988 C.3       5 UNK         0.0660 
     19 N          26.3512   -1.0453   -6.1472 N.am      5 UNK        -0.4015 
     20 C          25.3732   -0.7667   -7.0216 C.2       4 UNK         0.4946 
     21 O          25.5648   -0.5978   -8.2247 O.2       4 UNK        -0.5353 
     22 CA         23.9484   -0.5947   -6.4600 C.3       4 UNK         0.0277 
     23 CB         23.2295   -1.9517   -6.4013 C.3       4 UNK        -0.1981 
     24 N          23.9192    0.0303   -5.1350 N.am      4 UNK        -0.4209 
     25 C          24.4400    1.2305   -4.8426 C.2       3 UNK         0.4942 
     26 O          24.8858    1.9981   -5.6943 O.2       3 UNK        -0.5208 
     27 CA         24.5477    1.6280   -3.3583 C.3       3 UNK         0.0250 
     28 CB         23.4672    2.6629   -3.0066 C.3       3 UNK        -0.1990 
     29 N          24.4878    0.5203   -2.3937 N.am      3 UNK        -0.4232 
     30 C          25.2749   -0.5659   -2.3713 C.2       2 UNK         0.4993 
     31 O          26.1314   -0.8162   -3.2250 O.2       2 UNK        -0.5286 
     32 CA         25.0213   -1.5537   -1.2261 C.3       2 UNK         0.0209 
     33 CB         23.6044   -2.1572   -1.3055 C.3       2 UNK        -0.1931 
     34 N          26.0019   -2.6344   -1.2807 N.am      2 UNK        -0.4546 
     35 C          26.4490   -3.3304   -0.2280 C.2       1 UNK         0.5154 
     36 O          26.1299   -3.0790    0.9355 O.2       1 UNK        -0.5181 
     37 C          28.3809    0.2177   -6.8493 C.2       5 UNK         0.5014 
     38 O          29.2399    0.2929   -7.7313 O.2       5 UNK        -0.5248 
     39 N          27.9206    1.2811   -6.1736 N.am      6 UNK        -0.4434 
     40 CA         28.3004    2.6639   -6.4647 C.3       6 UNK         0.0363 
     41 CB         27.9376    3.5768   -5.2827 C.3       6 UNK        -0.1936 
     42 C          27.6615    3.1588   -7.7710 C.2       6 UNK         0.5081 
     43 O          28.3494    3.7883   -8.5725 O.2       6 UNK        -0.5248 
     44 N          26.3837    2.8171   -7.9947 N.am      7 UNK        -0.4718 
     45 CA         25.6482    3.0855   -9.2360 C.3       7 UNK         0.0273 
     46 CB         24.1709    2.7046   -9.0534 C.3       7 UNK        -0.1935 
     47 C          26.2509    2.3686  -10.4581 C.2       7 UNK         0.5018 
     48 O          26.3135    2.9595  -11.5364 O.2       7 UNK        -0.5186 
     49 N          26.7277    1.1317  -10.2563 N.am      8 UNK        -0.4240 
     50 CA         27.4932    0.3517  -11.2344 C.3       8 UNK         0.0235 
     51 CB         27.4993   -1.1239  -10.8005 C.3       8 UNK        -0.2000 
     52 C          28.9382    0.8511  -11.4395 C.2       8 UNK         0.4941 
     53 O          29.6015    0.3730  -12.3606 O.2       8 UNK        -0.5273 
     54 N          29.4034    1.7776  -10.5864 N.am      9 UNK        -0.4262 
     55 CA         30.7416    2.3757  -10.5504 C.3       9 UNK         0.0264 
     56 CB         31.0034    3.2216  -11.8152 C.3       9 UNK        -0.1955 
     57 C          31.8587    1.3546  -10.2611 C.2       9 UNK         0.5031 
     58 O          32.9623    1.4897  -10.7938 O.2       9 UNK        -0.5390 
     59 N          31.5665    0.3594   -9.4102 N.am      10 UNK        -0.4204 
     60 CA         32.5303   -0.6568   -8.9785 C.3       10 UNK         0.0237 
     61 CB         31.7784   -1.8617   -8.3940 C.3       10 UNK        -0.1985 
     62 C          33.5525   -0.0974   -7.9734 C.2       10 UNK         0.4970 
     63 O          34.7322   -0.4402   -8.0568 O.2       10 UNK        -0.4914 
     64 N          33.0844    0.7691   -7.0684 N.am      11 UNK        -0.4285 
     65 CA         33.8929    1.5035   -6.0823 C.3       11 UNK         0.1007 
     66 C          33.2245    2.8294   -5.6132 C.2       11 UNK         0.5703 
     67 N          32.2424    3.3653   -6.3309 N.am      11 UNK        -0.7361 
     68 O          33.6126    3.4025   -4.5980 O.2       11 UNK        -0.4986 
     69 C69        34.4205    0.6099   -4.9210 C.3       12 UNK        -0.0947 
     70 S70        33.1120   -0.3058   -4.0375 S.3       12 UNK        -0.2240 
     71 C71        33.7155   -2.0124   -4.2135 C.3       12 UNK         0.0194 
     72 H72        25.5352   -5.6081   -4.2986 H         1 UNK         0.0906 
     73 H73        25.6987   -7.2843   -3.7663 H         1 UNK         0.0906 
     74 H74        27.1377   -6.3356   -4.1230 H         1 UNK         0.0906 
     75 H75        27.8966   -4.7886   -2.5486 H         1 UNK         0.3140 
     76 H76        27.0789   -5.3070    0.1931 H         1 UNK         0.1085 
     77 H77        29.2362   -3.4416   -0.9095 H         1 UNK         0.0836 
     78 H78        28.9515   -3.7302    0.7895 H         1 UNK         0.0836 
     79 H79        31.8337   -4.2393   -0.0761 H         1 UNK         0.0731 
     80 H80        32.2634   -5.8090   -0.7116 H         1 UNK         0.0731 
     81 H81        33.3049   -3.2631   -1.8116 H         1 UNK         0.1312 
     82 H82        31.7181   -2.9334   -5.7683 H         1 UNK         0.1406 
     83 H83        29.8225   -5.5154   -2.9378 H         1 UNK         0.1631 
     84 H84        29.2891   -5.5943   -5.4339 H         1 UNK         0.0717 
     85 H85        29.8654   -4.3140   -6.4731 H         1 UNK         0.0717 
     86 H86        28.5185   -1.2914   -4.4478 H         1 UNK         0.0934 
     87 H87        29.6449   -1.8429   -5.6516 H         1 UNK         0.0934 
     88 H88        27.8427   -1.7710   -7.3977 H         1 UNK         0.0739 
     89 H89        26.1301   -1.1370   -5.1591 H         1 UNK         0.3093 
     90 H90        23.3998    0.0563   -7.1431 H         1 UNK         0.0818 
     91 H91        23.2194   -2.4291   -7.3823 H         1 UNK         0.0819 
     92 H92        23.7179   -2.6395   -5.7095 H         1 UNK         0.0819 
     93 H93        22.1915   -1.8387   -6.0879 H         1 UNK         0.0819 
     94 H94        23.5718   -0.5323   -4.3728 H         1 UNK         0.3041 
     95 H95        25.5236    2.1020   -3.2346 H         1 UNK         0.0784 
     96 H96        23.5045    3.5148   -3.6877 H         1 UNK         0.0793 
     97 H97        22.4648    2.2377   -3.0718 H         1 UNK         0.0793 
     98 H98        23.6030    3.0539   -1.9981 H         1 UNK         0.0793 
     99 H99        23.8040    0.6226   -1.6572 H         1 UNK         0.3024 
    100 H100       25.1360   -1.0050   -0.2882 H         1 UNK         0.1171 
    101 H101       22.8332   -1.3903   -1.2271 H         1 UNK         0.0786 
    102 H102       23.4464   -2.6885   -2.2451 H         1 UNK         0.0786 
    103 H103       23.4303   -2.8642   -0.4940 H         1 UNK         0.0786 
    104 H104       26.3629   -2.8378   -2.2040 H         1 UNK         0.2977 
    105 H105       27.1880    1.1434   -5.4925 H         1 UNK         0.3127 
    106 H106       29.3844    2.6980   -6.5909 H         1 UNK         0.0770 
    107 H107       26.8626    3.6174   -5.1084 H         1 UNK         0.0814 
    108 H108       28.2727    4.5982   -5.4679 H         1 UNK         0.0814 
    109 H109       28.4156    3.2422   -4.3620 H         1 UNK         0.0814 
    110 H110       25.8693    2.3558   -7.2471 H         1 UNK         0.2983 
    111 H111       25.7035    4.1598   -9.4247 H         1 UNK         0.0947 
    112 H112       24.0489    1.6353   -8.8814 H         1 UNK         0.0806 
    113 H113       23.5904    2.9598   -9.9409 H         1 UNK         0.0806 
    114 H114       23.7253    3.2324   -8.2099 H         1 UNK         0.0806 
    115 H115       26.5400    0.6804   -9.3650 H         1 UNK         0.3000 
    116 H116       26.9865    0.4232  -12.1990 H         1 UNK         0.0850 
    117 H117       28.0189   -1.7467  -11.5299 H         1 UNK         0.0810 
    118 H118       26.4859   -1.5147  -10.7063 H         1 UNK         0.0810 
    119 H119       28.0008   -1.2575   -9.8416 H         1 UNK         0.0810 
    120 H120       28.7728    2.1143   -9.8686 H         1 UNK         0.3040 
    121 H121       30.7397    3.0591   -9.7005 H         1 UNK         0.0766 
    122 H122       31.0867    2.6015  -12.7081 H         1 UNK         0.0812 
    123 H123       31.9328    3.7849  -11.7238 H         1 UNK         0.0812 
    124 H124       30.2037    3.9436  -11.9805 H         1 UNK         0.0812 
    125 H125       30.6417    0.3280   -8.9830 H         1 UNK         0.3205 
    126 H126       33.0829   -1.0007   -9.8557 H         1 UNK         0.0754 
    127 H127       32.4740   -2.6398   -8.0768 H         1 UNK         0.0769 
    128 H128       31.1088   -2.3052   -9.1313 H         1 UNK         0.0769 
    129 H129       31.1791   -1.5771   -7.5302 H         1 UNK         0.0769 
    130 H130       32.0932    0.9561   -7.0397 H         1 UNK         0.2981 
    131 H131       34.7758    1.8563   -6.6182 H         1 UNK         0.0541 
    132 H132       31.9691    2.9802   -7.2177 H         1 UNK         0.3459 
    133 H133       31.8353    4.2307   -6.0134 H         1 UNK         0.3459 
    134 H134       34.9777    1.2018   -4.1932 H         1 UNK         0.0612 
    135 H135       35.1476   -0.0984   -5.3198 H         1 UNK         0.0612 
    136 H136       34.6016   -2.1506   -3.5921 H         1 UNK         0.0624 
    137 H137       34.0255   -2.1874   -5.2453 H         1 UNK         0.0624 
@<TRIPOS>BOND
     1    1    2 1    
     2    1   72 1    
     3    1   73 1    
     4    1   74 1    
     5    2    3 2    
     6    2    4 am   BACKBONE|DICT|INTERRES
     7    4    5 1    
     8    4   75 1    
     9    5    6 1    
    10    5   35 1    
    11    5   76 1    
    12    6    7 1    
    13    6   77 1    
    14    6   78 1    
    15    7    8 1    
    16    8    9 1    
    17    8   79 1    
    18    8   80 1    
    19    9   10 ar   
    20    9   14 ar   
    21   10   11 ar   
    22   10   81 1    
    23   11   12 ar   
    24   11   71 1    
    25   12   13 ar   
    26   12   82 1    
    27   13   14 ar   
    28   13   15 1    
    29   14   83 1    
    30   15   16 1    
    31   15   84 1    
    32   15   85 1    
    33   16   17 1    
    34   17   18 1    
    35   17   86 1    
    36   17   87 1    
    37   18   19 1    
    38   18   37 1    
    39   18   88 1    
    40   19   20 am   BACKBONE|DICT|INTERRES
    41   19   89 1    
    42   20   21 2    
    43   20   22 1    
    44   22   23 1    
    45   22   24 1    
    46   22   90 1    
    47   23   91 1    
    48   23   92 1    
    49   23   93 1    
    50   24   25 am   BACKBONE|DICT|INTERRES
    51   24   94 1    
    52   25   26 2    
    53   25   27 1    
    54   27   28 1    
    55   27   29 1    
    56   27   95 1    
    57   28   96 1    
    58   28   97 1    
    59   28   98 1    
    60   29   30 am   BACKBONE|DICT|INTERRES
    61   29   99 1    
    62   30   31 2    
    63   30   32 1    
    64   32   33 1    
    65   32   34 1    
    66   32  100 1    
    67   33  101 1    
    68   33  102 1    
    69   33  103 1    
    70   34   35 am   BACKBONE|DICT|INTERRES
    71   34  104 1    
    72   35   36 2    
    73   37   38 2    
    74   37   39 am   BACKBONE|DICT|INTERRES
    75   39   40 1    
    76   39  105 1    
    77   40   41 1    
    78   40   42 1    
    79   40  106 1    
    80   41  107 1    
    81   41  108 1    
    82   41  109 1    
    83   42   43 2    
    84   42   44 am   BACKBONE|DICT|INTERRES
    85   44   45 1    
    86   44  110 1    
    87   45   46 1    
    88   45   47 1    
    89   45  111 1    
    90   46  112 1    
    91   46  113 1    
    92   46  114 1    
    93   47   48 2    
    94   47   49 am   BACKBONE|DICT|INTERRES
    95   49   50 1    
    96   49  115 1    
    97   50   51 1    
    98   50   52 1    
    99   50  116 1    
   100   51  117 1    
   101   51  118 1    
   102   51  119 1    
   103   52   53 2    
   104   52   54 am   BACKBONE|DICT|INTERRES
   105   54   55 1    
   106   54  120 1    
   107   55   56 1    
   108   55   57 1    
   109   55  121 1    
   110   56  122 1    
   111   56  123 1    
   112   56  124 1    
   113   57   58 2    
   114   57   59 am   BACKBONE|DICT|INTERRES
   115   59   60 1    
   116   59  125 1    
   117   60   61 1    
   118   60   62 1    
   119   60  126 1    
   120   61  127 1    
   121   61  128 1    
   122   61  129 1    
   123   62   63 2    
   124   62   64 am   BACKBONE|DICT|INTERRES
   125   64   65 1    
   126   64  130 1    
   127   65   66 1    
   128   65   69 1    
   129   65  131 1    
   130   66   67 am   BACKBONE|DICT|INTERRES
   131   66   68 2    
   132   67  132 1    
   133   67  133 1    
   134   69   70 1    
   135   69  134 1    
   136   69  135 1    
   137   70   71 1    
   138   71  136 1    
   139   71  137 1    
@<TRIPOS>SUBSTRUCTURE
     1 UNK         1 GROUP             0       ****    0 ROOT    
