@<TRIPOS>MOLECULE
3R137
137   139    1
SMALL
USER_CHARGES


@<TRIPOS>ATOM
      1 CA         24.7959   -6.6625   -2.9935 C.3       0 UNK        -0.2020 
      2 C          25.6725   -5.4228   -3.0748 C.2       0 UNK         0.4855 
      3 O          25.5433   -4.6487   -4.0247 O.2       0 UNK        -0.5197 
      4 N          26.5514   -5.2216   -2.0791 N.am      1 UNK        -0.4892 
      5 CA         27.5017   -4.1023   -1.9721 C.3       1 UNK         0.0835 
      6 C6         28.6627   -4.2087   -3.0085 C.3       12 UNK        -0.0855 
      7 S7         30.1578   -5.0271   -2.3679 S.3       12 UNK        -0.2931 
      8 C8         31.0154   -3.6851   -1.4603 C.3       12 UNK         0.0378 
      9 C9         31.0495   -2.3301   -2.1705 C.ar      12 UNK        -0.0802 
     10 C10        31.5169   -2.2087   -3.4854 C.ar      12 UNK        -0.0944 
     11 C11        31.5455   -0.9595   -4.1160 C.ar      12 UNK        -0.0787 
     12 C12        31.1298    0.1757   -3.4157 C.ar      12 UNK        -0.0862 
     13 C13        30.6528    0.0725   -2.1059 C.ar      12 UNK        -0.0733 
     14 C14        30.6159   -1.1844   -1.4926 C.ar      12 UNK        -0.0832 
     15 C15        30.1960    1.3093   -1.3321 C.3       12 UNK         0.0240 
     16 S16        29.1630    2.4687   -2.2987 S.3       12 UNK        -0.2522 
     17 C17        27.7907    1.3968   -2.8385 C.3       12 UNK        -0.0967 
     18 CA         27.7031    1.3025   -4.3867 C.3       5 UNK         0.0660 
     19 N          27.3031   -0.0272   -4.8524 N.am      5 UNK        -0.4015 
     20 C          27.3184   -0.4362   -6.1299 C.2       4 UNK         0.4946 
     21 O          27.7711    0.2352   -7.0571 O.2       4 UNK        -0.5353 
     22 CA         26.6863   -1.8056   -6.4409 C.3       4 UNK         0.0277 
     23 CB         27.7202   -2.9332   -6.3207 C.3       4 UNK        -0.1981 
     24 N          25.5241   -2.0978   -5.5955 N.am      4 UNK        -0.4209 
     25 C          24.3680   -1.4211   -5.6651 C.2       3 UNK         0.4942 
     26 O          24.1609   -0.5056   -6.4605 O.2       3 UNK        -0.5208 
     27 CA         23.2720   -1.7944   -4.6562 C.3       3 UNK         0.0250 
     28 CB         22.5290   -3.0674   -5.0922 C.3       3 UNK        -0.1990 
     29 N          23.7997   -1.9611   -3.3021 N.am      3 UNK        -0.4232 
     30 C          24.2866   -0.9621   -2.5521 C.2       2 UNK         0.4993 
     31 O          24.3221    0.2158   -2.9125 O.2       2 UNK        -0.5286 
     32 CA         24.8872   -1.3565   -1.1898 C.3       2 UNK         0.0209 
     33 CB         23.7830   -1.5044   -0.1311 C.3       2 UNK        -0.1931 
     34 N          25.6969   -2.5826   -1.2358 N.am      2 UNK        -0.4546 
     35 C          26.7757   -2.7366   -2.0184 C.2       1 UNK         0.5154 
     36 O          27.1595   -1.8593   -2.7880 O.2       1 UNK        -0.5181 
     37 C          26.7839    2.3959   -4.9637 C.2       5 UNK         0.5014 
     38 O          27.2848    3.3785   -5.5114 O.2       5 UNK        -0.5248 
     39 N          25.4602    2.1872   -4.8713 N.am      6 UNK        -0.4434 
     40 CA         24.4360    3.0759   -5.4312 C.3       6 UNK         0.0363 
     41 CB         23.0434    2.6098   -4.9782 C.3       6 UNK        -0.1936 
     42 C          24.5015    3.1879   -6.9653 C.2       6 UNK         0.5081 
     43 O          24.3151    4.2807   -7.5009 O.2       6 UNK        -0.5248 
     44 N          24.7955    2.0691   -7.6414 N.am      7 UNK        -0.4718 
     45 CA         25.0240    1.9990   -9.0880 C.3       7 UNK         0.0273 
     46 CB         24.9143    0.5326   -9.5370 C.3       7 UNK        -0.1935 
     47 C          26.3756    2.5900   -9.5362 C.2       7 UNK         0.5018 
     48 O          26.5506    2.8173  -10.7340 O.2       7 UNK        -0.5186 
     49 N          27.2985    2.8083   -8.5863 N.am      8 UNK        -0.4240 
     50 CA         28.6847    3.2551   -8.7607 C.3       8 UNK         0.0235 
     51 CB         28.7366    4.7063   -9.2845 C.3       8 UNK        -0.2000 
     52 C          29.5109    2.2676   -9.6076 C.2       8 UNK         0.4941 
     53 O          30.1658    2.6729  -10.5712 O.2       8 UNK        -0.5273 
     54 N          29.4399    0.9799   -9.2423 N.am      9 UNK        -0.4262 
     55 CA         30.1475   -0.1235   -9.8952 C.3       9 UNK         0.0264 
     56 CB         29.6685   -1.4489   -9.2858 C.3       9 UNK        -0.1955 
     57 C          31.6764   -0.0109   -9.7667 C.2       9 UNK         0.5031 
     58 O          32.1807    0.4655   -8.7463 O.2       9 UNK        -0.5390 
     59 N          32.3900   -0.5024  -10.7866 N.am      10 UNK        -0.4204 
     60 CA         33.8523   -0.5128  -10.8688 C.3       10 UNK         0.0237 
     61 CB         34.2663   -0.5536  -12.3526 C.3       10 UNK        -0.1985 
     62 C          34.4696   -1.6631  -10.0485 C.2       10 UNK         0.4970 
     63 O          35.1101   -2.5508  -10.6149 O.2       10 UNK        -0.4914 
     64 N          34.2611   -1.6297   -8.7277 N.am      11 UNK        -0.4285 
     65 CA         34.8545   -2.5614   -7.7528 C.3       11 UNK         0.1007 
     66 C          36.3829   -2.3767   -7.5096 C.2       11 UNK         0.5703 
     67 N          37.0044   -1.2898   -7.9534 N.am      11 UNK        -0.7361 
     68 O          37.0194   -3.2467   -6.9195 O.2       11 UNK        -0.4986 
     69 C69        34.0556   -2.5955   -6.4213 C.3       12 UNK        -0.0947 
     70 S70        33.8266   -0.9427   -5.6735 S.3       12 UNK        -0.2240 
     71 C71        32.0144   -0.8230   -5.5561 C.3       12 UNK         0.0194 
     72 H72        24.9663   -7.2970   -3.8628 H         1 UNK         0.0906 
     73 H73        24.9997   -7.2503   -2.0987 H         1 UNK         0.0906 
     74 H74        23.7443   -6.3774   -2.9813 H         1 UNK         0.0906 
     75 H75        26.5997   -5.8965   -1.3276 H         1 UNK         0.3140 
     76 H76        27.9307   -4.1492   -0.9701 H         1 UNK         0.1085 
     77 H77        28.3394   -4.7523   -3.8969 H         1 UNK         0.0836 
     78 H78        28.9842   -3.2434   -3.3874 H         1 UNK         0.0836 
     79 H79        32.0412   -4.0002   -1.2651 H         1 UNK         0.0731 
     80 H80        30.5405   -3.5883   -0.4829 H         1 UNK         0.0731 
     81 H81        31.8494   -3.0876   -4.0208 H         1 UNK         0.1312 
     82 H82        31.1676    1.1437   -3.8959 H         1 UNK         0.1406 
     83 H83        30.2549   -1.2689   -0.4765 H         1 UNK         0.1631 
     84 H84        31.0789    1.8425   -0.9777 H         1 UNK         0.0717 
     85 H85        29.6355    1.0176   -0.4425 H         1 UNK         0.0717 
     86 H86        27.9578    0.4146   -2.4034 H         1 UNK         0.0934 
     87 H87        26.8585    1.7460   -2.3894 H         1 UNK         0.0934 
     88 H88        28.6995    1.4661   -4.8033 H         1 UNK         0.0739 
     89 H89        27.0152   -0.6898   -4.1333 H         1 UNK         0.3093 
     90 H90        26.3355   -1.7853   -7.4745 H         1 UNK         0.0818 
     91 H91        28.3174   -2.8277   -5.4193 H         1 UNK         0.0819 
     92 H92        27.2509   -3.9172   -6.3070 H         1 UNK         0.0819 
     93 H93        28.4107   -2.9190   -7.1619 H         1 UNK         0.0819 
     94 H94        25.6112   -2.8592   -4.9271 H         1 UNK         0.3041 
     95 H95        22.5509   -0.9743   -4.6349 H         1 UNK         0.0784 
     96 H96        22.1056   -2.9466   -6.0903 H         1 UNK         0.0793 
     97 H97        23.1883   -3.9353   -5.1222 H         1 UNK         0.0793 
     98 H98        21.7042   -3.2959   -4.4170 H         1 UNK         0.0793 
     99 H99        23.8703   -2.9054   -2.9514 H         1 UNK         0.3024 
    100 H100       25.5461   -0.5404   -0.8843 H         1 UNK         0.1171 
    101 H101       24.2038   -1.6758    0.8599 H         1 UNK         0.0786 
    102 H102       23.1772   -0.5989   -0.0709 H         1 UNK         0.0786 
    103 H103       23.1103   -2.3322   -0.3588 H         1 UNK         0.0786 
    104 H104       25.4122   -3.3495   -0.6433 H         1 UNK         0.2977 
    105 H105       25.1244    1.3677   -4.3721 H         1 UNK         0.3127 
    106 H106       24.6094    4.0735   -5.0224 H         1 UNK         0.0770 
    107 H107       22.8183    1.6042   -5.3344 H         1 UNK         0.0814 
    108 H108       22.2662    3.2734   -5.3597 H         1 UNK         0.0814 
    109 H109       22.9612    2.6045   -3.8912 H         1 UNK         0.0814 
    110 H110       24.8420    1.1912   -7.1297 H         1 UNK         0.2983 
    111 H111       24.2382    2.5706   -9.5865 H         1 UNK         0.0947 
    112 H112       25.0175    0.4450  -10.6194 H         1 UNK         0.0806 
    113 H113       23.9487    0.1044   -9.2674 H         1 UNK         0.0806 
    114 H114       25.6926   -0.0826   -9.0848 H         1 UNK         0.0806 
    115 H115       27.0468    2.5640   -7.6361 H         1 UNK         0.3000 
    116 H116       29.1316    3.2491   -7.7652 H         1 UNK         0.0850 
    117 H117       29.7629    5.0745   -9.3083 H         1 UNK         0.0810 
    118 H118       28.1658    5.3780   -8.6434 H         1 UNK         0.0810 
    119 H119       28.3391    4.7887  -10.2965 H         1 UNK         0.0810 
    120 H120       28.8681    0.7374   -8.4336 H         1 UNK         0.3040 
    121 H121       29.8795   -0.1047  -10.9536 H         1 UNK         0.0766 
    122 H122       28.5876   -1.5604   -9.3742 H         1 UNK         0.0812 
    123 H123       29.9291   -1.5097   -8.2286 H         1 UNK         0.0812 
    124 H124       30.1265   -2.3035   -9.7855 H         1 UNK         0.0812 
    125 H125       31.8976   -0.9203  -11.5634 H         1 UNK         0.3205 
    126 H126       34.2333    0.4208  -10.4488 H         1 UNK         0.0754 
    127 H127       35.3521   -0.5294  -12.4564 H         1 UNK         0.0769 
    128 H128       33.8730    0.3050  -12.8975 H         1 UNK         0.0769 
    129 H129       33.9109   -1.4576  -12.8489 H         1 UNK         0.0769 
    130 H130       33.6996   -0.8744   -8.3473 H         1 UNK         0.2981 
    131 H131       34.7641   -3.5593   -8.1862 H         1 UNK         0.0541 
    132 H132       36.4910   -0.5647   -8.4269 H         1 UNK         0.3459 
    133 H133       37.9941   -1.1877   -7.7940 H         1 UNK         0.3459 
    134 H134       33.0857   -3.0582   -6.6042 H         1 UNK         0.0612 
    135 H135       34.5424   -3.2407   -5.6877 H         1 UNK         0.0612 
    136 H136       31.7106    0.1430   -5.9628 H         1 UNK         0.0624 
    137 H137       31.5202   -1.5686   -6.1791 H         1 UNK         0.0624 
@<TRIPOS>BOND
     1    1    2 1    
     2    1   72 1    
     3    1   73 1    
     4    1   74 1    
     5    2    3 2    
     6    2    4 am   BACKBONE|DICT|INTERRES
     7    4    5 1    
     8    4   75 1    
     9    5    6 1    
    10    5   35 1    
    11    5   76 1    
    12    6    7 1    
    13    6   77 1    
    14    6   78 1    
    15    7    8 1    
    16    8    9 1    
    17    8   79 1    
    18    8   80 1    
    19    9   10 ar   
    20    9   14 ar   
    21   10   11 ar   
    22   10   81 1    
    23   11   12 ar   
    24   11   71 1    
    25   12   13 ar   
    26   12   82 1    
    27   13   14 ar   
    28   13   15 1    
    29   14   83 1    
    30   15   16 1    
    31   15   84 1    
    32   15   85 1    
    33   16   17 1    
    34   17   18 1    
    35   17   86 1    
    36   17   87 1    
    37   18   19 1    
    38   18   37 1    
    39   18   88 1    
    40   19   20 am   BACKBONE|DICT|INTERRES
    41   19   89 1    
    42   20   21 2    
    43   20   22 1    
    44   22   23 1    
    45   22   24 1    
    46   22   90 1    
    47   23   91 1    
    48   23   92 1    
    49   23   93 1    
    50   24   25 am   BACKBONE|DICT|INTERRES
    51   24   94 1    
    52   25   26 2    
    53   25   27 1    
    54   27   28 1    
    55   27   29 1    
    56   27   95 1    
    57   28   96 1    
    58   28   97 1    
    59   28   98 1    
    60   29   30 am   BACKBONE|DICT|INTERRES
    61   29   99 1    
    62   30   31 2    
    63   30   32 1    
    64   32   33 1    
    65   32   34 1    
    66   32  100 1    
    67   33  101 1    
    68   33  102 1    
    69   33  103 1    
    70   34   35 am   BACKBONE|DICT|INTERRES
    71   34  104 1    
    72   35   36 2    
    73   37   38 2    
    74   37   39 am   BACKBONE|DICT|INTERRES
    75   39   40 1    
    76   39  105 1    
    77   40   41 1    
    78   40   42 1    
    79   40  106 1    
    80   41  107 1    
    81   41  108 1    
    82   41  109 1    
    83   42   43 2    
    84   42   44 am   BACKBONE|DICT|INTERRES
    85   44   45 1    
    86   44  110 1    
    87   45   46 1    
    88   45   47 1    
    89   45  111 1    
    90   46  112 1    
    91   46  113 1    
    92   46  114 1    
    93   47   48 2    
    94   47   49 am   BACKBONE|DICT|INTERRES
    95   49   50 1    
    96   49  115 1    
    97   50   51 1    
    98   50   52 1    
    99   50  116 1    
   100   51  117 1    
   101   51  118 1    
   102   51  119 1    
   103   52   53 2    
   104   52   54 am   BACKBONE|DICT|INTERRES
   105   54   55 1    
   106   54  120 1    
   107   55   56 1    
   108   55   57 1    
   109   55  121 1    
   110   56  122 1    
   111   56  123 1    
   112   56  124 1    
   113   57   58 2    
   114   57   59 am   BACKBONE|DICT|INTERRES
   115   59   60 1    
   116   59  125 1    
   117   60   61 1    
   118   60   62 1    
   119   60  126 1    
   120   61  127 1    
   121   61  128 1    
   122   61  129 1    
   123   62   63 2    
   124   62   64 am   BACKBONE|DICT|INTERRES
   125   64   65 1    
   126   64  130 1    
   127   65   66 1    
   128   65   69 1    
   129   65  131 1    
   130   66   67 am   BACKBONE|DICT|INTERRES
   131   66   68 2    
   132   67  132 1    
   133   67  133 1    
   134   69   70 1    
   135   69  134 1    
   136   69  135 1    
   137   70   71 1    
   138   71  136 1    
   139   71  137 1    
@<TRIPOS>SUBSTRUCTURE
     1 UNK         1 GROUP             0       ****    0 ROOT    
