@<TRIPOS>MOLECULE
3R137
137   139    1
SMALL
USER_CHARGES


@<TRIPOS>ATOM
      1 CA         25.9160   -6.3956   -2.9723 C.3       0 UNK        -0.2020 
      2 C          26.1390   -5.0005   -2.4109 C.2       0 UNK         0.4855 
      3 O          26.1387   -4.0337   -3.1727 O.2       0 UNK        -0.5197 
      4 N          26.3286   -4.8894   -1.0879 N.am      1 UNK        -0.4892 
      5 CA         26.5576   -3.6399   -0.3440 C.3       1 UNK         0.0835 
      6 C6         27.9368   -2.9890   -0.6607 C.3       12 UNK        -0.0855 
      7 S7         29.3700   -4.0879   -0.4039 S.3       12 UNK        -0.2931 
      8 C8         29.9841   -4.2933   -2.1154 C.3       12 UNK         0.0378 
      9 C9         30.6375   -3.0678   -2.7679 C.ar      12 UNK        -0.0802 
     10 C10        31.2642   -3.2449   -4.0052 C.ar      12 UNK        -0.0944 
     11 C11        31.8628   -2.1722   -4.6726 C.ar      12 UNK        -0.0787 
     12 C12        31.8254   -0.8993   -4.0977 C.ar      12 UNK        -0.0862 
     13 C13        31.2071   -0.6984   -2.8610 C.ar      12 UNK        -0.0733 
     14 C14        30.6301   -1.7862   -2.1974 C.ar      12 UNK        -0.0832 
     15 C15        31.1835    0.6866   -2.2220 C.3       12 UNK         0.0240 
     16 S16        30.2645    1.9246   -3.1993 S.3       12 UNK        -0.2522 
     17 C17        28.6118    1.1687   -3.3702 C.3       12 UNK        -0.0967 
     18 CA         28.2665    0.9101   -4.8618 C.3       5 UNK         0.0660 
     19 N          27.5939   -0.3743   -5.0615 N.am      5 UNK        -0.4015 
     20 C          27.3979   -0.9510   -6.2554 C.2       4 UNK         0.4946 
     21 O          27.7238   -0.4472   -7.3293 O.2       4 UNK        -0.5353 
     22 CA         26.6684   -2.3006   -6.2490 C.3       4 UNK         0.0277 
     23 CB         27.6478   -3.4422   -5.9304 C.3       4 UNK        -0.1981 
     24 N          25.5481   -2.3189   -5.3047 N.am      4 UNK        -0.4209 
     25 C          24.4318   -1.5922   -5.4595 C.2       3 UNK         0.4942 
     26 O          24.2331   -0.8388   -6.4135 O.2       3 UNK        -0.5208 
     27 CA         23.3655   -1.7027   -4.3575 C.3       3 UNK         0.0250 
     28 CB         22.6813   -3.0795   -4.3923 C.3       3 UNK        -0.1990 
     29 N          23.8642   -1.4401   -3.0048 N.am      3 UNK        -0.4232 
     30 C          24.5019   -0.3365   -2.5927 C.2       2 UNK         0.4993 
     31 O          24.8519    0.5761   -3.3385 O.2       2 UNK        -0.5286 
     32 CA         24.8407   -0.2405   -1.0961 C.3       2 UNK         0.0209 
     33 CB         23.5802   -0.0556   -0.2269 C.3       2 UNK        -0.1931 
     34 N          25.6845   -1.3517   -0.6421 N.am      2 UNK        -0.4546 
     35 C          25.3765   -2.6539   -0.5375 C.2       1 UNK         0.5154 
     36 O          24.2258   -3.0902   -0.6365 O.2       1 UNK        -0.5181 
     37 C          27.4846    2.0833   -5.4912 C.2       5 UNK         0.5014 
     38 O          28.0936    2.9634   -6.1005 O.2       5 UNK        -0.5248 
     39 N          26.1494    2.0606   -5.3605 N.am      6 UNK        -0.4434 
     40 CA         25.2349    3.0108   -5.9951 C.3       6 UNK         0.0363 
     41 CB         23.8275    2.8483   -5.3990 C.3       6 UNK        -0.1936 
     42 C          25.1882    2.8701   -7.5259 C.2       6 UNK         0.5081 
     43 O          25.0327    3.8813   -8.2114 O.2       6 UNK        -0.5248 
     44 N          25.3197    1.6365   -8.0368 N.am      7 UNK        -0.4718 
     45 CA         25.3865    1.3438   -9.4700 C.3       7 UNK         0.0273 
     46 CB         25.1855   -0.1606   -9.7172 C.3       7 UNK        -0.1935 
     47 C          26.6941    1.8509  -10.1005 C.2       7 UNK         0.5018 
     48 O          26.6362    2.5842  -11.0889 O.2       7 UNK        -0.5186 
     49 N          27.8377    1.4850   -9.5070 N.am      8 UNK        -0.4240 
     50 CA         29.1672    1.9495   -9.8963 C.3       8 UNK         0.0235 
     51 CB         29.6060    1.3230  -11.2378 C.3       8 UNK        -0.2000 
     52 C          30.1520    1.5865   -8.7838 C.2       8 UNK         0.4941 
     53 O          30.4512    0.4059   -8.6175 O.2       8 UNK        -0.5273 
     54 N          30.6807    2.5922   -8.0737 N.am      9 UNK        -0.4262 
     55 CA         31.6054    2.4283   -6.9416 C.3       9 UNK         0.0264 
     56 CB         31.8561    3.7972   -6.2898 C.3       9 UNK        -0.1955 
     57 C          32.9395    1.7314   -7.2754 C.2       9 UNK         0.5031 
     58 O          33.5839    1.2040   -6.3690 O.2       9 UNK        -0.5390 
     59 N          33.3309    1.7300   -8.5558 N.am      10 UNK        -0.4204 
     60 CA         34.4775    0.9775   -9.0670 C.3       10 UNK         0.0237 
     61 CB         34.9808    1.6531  -10.3539 C.3       10 UNK        -0.1985 
     62 C          34.1598   -0.5074   -9.3331 C.2       10 UNK         0.4970 
     63 O          35.0981   -1.2991   -9.4301 O.2       10 UNK        -0.4914 
     64 N          32.8713   -0.8552   -9.4808 N.am      11 UNK        -0.4285 
     65 CA         32.3571   -2.1847   -9.8582 C.3       11 UNK         0.1007 
     66 C          32.8672   -2.7228  -11.2325 C.2       11 UNK         0.5703 
     67 N          33.2770   -1.8651  -12.1602 N.am      11 UNK        -0.7361 
     68 O          32.8628   -3.9261  -11.4831 O.2       11 UNK        -0.4986 
     69 C69        32.4664   -3.2189   -8.7022 C.3       12 UNK        -0.0947 
     70 S70        31.3649   -2.7959   -7.3121 S.3       12 UNK        -0.2240 
     71 C71        32.5613   -2.4017   -6.0048 C.3       12 UNK         0.0194 
     72 H72        24.9377   -6.4541   -3.4486 H         1 UNK         0.0906 
     73 H73        25.9648   -7.1607   -2.1979 H         1 UNK         0.0906 
     74 H74        26.6741   -6.6212   -3.7217 H         1 UNK         0.0906 
     75 H75        26.2900   -5.7221   -0.5170 H         1 UNK         0.3140 
     76 H76        26.5486   -3.9061    0.7142 H         1 UNK         0.1085 
     77 H77        28.1083   -2.1262   -0.0149 H         1 UNK         0.0836 
     78 H78        27.9485   -2.6177   -1.6875 H         1 UNK         0.0836 
     79 H79        29.1587   -4.6276   -2.7454 H         1 UNK         0.0731 
     80 H80        30.7097   -5.1080   -2.1068 H         1 UNK         0.0731 
     81 H81        31.2853   -4.2267   -4.4591 H         1 UNK         0.1312 
     82 H82        32.2810   -0.0621   -4.6062 H         1 UNK         0.1406 
     83 H83        30.1780   -1.6185   -1.2323 H         1 UNK         0.1631 
     84 H84        32.2099    1.0341   -2.0971 H         1 UNK         0.0717 
     85 H85        30.7531    0.6461   -1.2202 H         1 UNK         0.0717 
     86 H86        28.5965    0.2382   -2.8024 H         1 UNK         0.0934 
     87 H87        27.8732    1.8086   -2.8825 H         1 UNK         0.0934 
     88 H88        29.1978    0.8204   -5.4242 H         1 UNK         0.0739 
     89 H89        27.2476   -0.8468   -4.2410 H         1 UNK         0.3093 
     90 H90        26.2660   -2.4682   -7.2504 H         1 UNK         0.0818 
     91 H91        28.4489   -3.4820   -6.6691 H         1 UNK         0.0819 
     92 H92        28.1146   -3.3170   -4.9524 H         1 UNK         0.0819 
     93 H93        27.1474   -4.4105   -5.9408 H         1 UNK         0.0819 
     94 H94        25.6485   -2.9200   -4.4856 H         1 UNK         0.3041 
     95 H95        22.6079   -0.9452   -4.5679 H         1 UNK         0.0784 
     96 H96        22.3003   -3.3026   -5.3899 H         1 UNK         0.0793 
     97 H97        23.3694   -3.8803   -4.1176 H         1 UNK         0.0793 
     98 H98        21.8344   -3.1179   -3.7071 H         1 UNK         0.0793 
     99 H99        23.6998   -2.1590   -2.3062 H         1 UNK         0.3024 
    100 H100       25.4455    0.6604   -0.9748 H         1 UNK         0.1171 
    101 H101       23.8389    0.0498    0.8267 H         1 UNK         0.0786 
    102 H102       23.0405    0.8461   -0.5192 H         1 UNK         0.0786 
    103 H103       22.8829   -0.8885   -0.3180 H         1 UNK         0.0786 
    104 H104       26.6576   -1.1073   -0.5269 H         1 UNK         0.2977 
    105 H105       25.7189    1.3453   -4.7760 H         1 UNK         0.3127 
    106 H106       25.5877    4.0187   -5.7664 H         1 UNK         0.0770 
    107 H107       23.4347    1.8440   -5.5643 H         1 UNK         0.0814 
    108 H108       23.1273    3.5530   -5.8495 H         1 UNK         0.0814 
    109 H109       23.8285    3.0336   -4.3248 H         1 UNK         0.0814 
    110 H110       25.4052    0.8508   -7.4028 H         1 UNK         0.2983 
    111 H111       24.5619    1.8707   -9.9555 H         1 UNK         0.0947 
    112 H112       25.9720   -0.7606   -9.2606 H         1 UNK         0.0806 
    113 H113       25.1873   -0.3819  -10.7852 H         1 UNK         0.0806 
    114 H114       24.2313   -0.5030   -9.3161 H         1 UNK         0.0806 
    115 H115       27.8074    0.8590   -8.7008 H         1 UNK         0.3000 
    116 H116       29.1392    3.0357  -10.0066 H         1 UNK         0.0850 
    117 H117       30.6283    1.6092  -11.4877 H         1 UNK         0.0810 
    118 H118       28.9728    1.6495  -12.0624 H         1 UNK         0.0810 
    119 H119       29.5711    0.2332  -11.2027 H         1 UNK         0.0810 
    120 H120       30.3715    3.5349   -8.2639 H         1 UNK         0.3040 
    121 H121       31.1057    1.7948   -6.2082 H         1 UNK         0.0766 
    122 H122       30.9252    4.2409   -5.9351 H         1 UNK         0.0812 
    123 H123       32.3244    4.4968   -6.9830 H         1 UNK         0.0812 
    124 H124       32.5140    3.7023   -5.4246 H         1 UNK         0.0812 
    125 H125       32.7560    2.2117   -9.2311 H         1 UNK         0.3205 
    126 H126       35.2829    1.0124   -8.3299 H         1 UNK         0.0754 
    127 H127       35.8531    1.1331  -10.7530 H         1 UNK         0.0769 
    128 H128       35.2795    2.6852  -10.1686 H         1 UNK         0.0769 
    129 H129       34.2192    1.6586  -11.1347 H         1 UNK         0.0769 
    130 H130       32.1438   -0.1739   -9.2855 H         1 UNK         0.2981 
    131 H131       31.2927   -2.0277  -10.0371 H         1 UNK         0.0541 
    132 H132       33.5951   -2.2166  -13.0494 H         1 UNK         0.3459 
    133 H133       33.2732   -0.8748  -11.9797 H         1 UNK         0.3459 
    134 H134       32.1633   -4.2127   -9.0351 H         1 UNK         0.0612 
    135 H135       33.4979   -3.3163   -8.3612 H         1 UNK         0.0612 
    136 H136       33.2705   -3.2238   -5.9004 H         1 UNK         0.0624 
    137 H137       33.1377   -1.5246   -6.3023 H         1 UNK         0.0624 
@<TRIPOS>BOND
     1    1    2 1    
     2    1   72 1    
     3    1   73 1    
     4    1   74 1    
     5    2    3 2    
     6    2    4 am   BACKBONE|DICT|INTERRES
     7    4    5 1    
     8    4   75 1    
     9    5    6 1    
    10    5   35 1    
    11    5   76 1    
    12    6    7 1    
    13    6   77 1    
    14    6   78 1    
    15    7    8 1    
    16    8    9 1    
    17    8   79 1    
    18    8   80 1    
    19    9   10 ar   
    20    9   14 ar   
    21   10   11 ar   
    22   10   81 1    
    23   11   12 ar   
    24   11   71 1    
    25   12   13 ar   
    26   12   82 1    
    27   13   14 ar   
    28   13   15 1    
    29   14   83 1    
    30   15   16 1    
    31   15   84 1    
    32   15   85 1    
    33   16   17 1    
    34   17   18 1    
    35   17   86 1    
    36   17   87 1    
    37   18   19 1    
    38   18   37 1    
    39   18   88 1    
    40   19   20 am   BACKBONE|DICT|INTERRES
    41   19   89 1    
    42   20   21 2    
    43   20   22 1    
    44   22   23 1    
    45   22   24 1    
    46   22   90 1    
    47   23   91 1    
    48   23   92 1    
    49   23   93 1    
    50   24   25 am   BACKBONE|DICT|INTERRES
    51   24   94 1    
    52   25   26 2    
    53   25   27 1    
    54   27   28 1    
    55   27   29 1    
    56   27   95 1    
    57   28   96 1    
    58   28   97 1    
    59   28   98 1    
    60   29   30 am   BACKBONE|DICT|INTERRES
    61   29   99 1    
    62   30   31 2    
    63   30   32 1    
    64   32   33 1    
    65   32   34 1    
    66   32  100 1    
    67   33  101 1    
    68   33  102 1    
    69   33  103 1    
    70   34   35 am   BACKBONE|DICT|INTERRES
    71   34  104 1    
    72   35   36 2    
    73   37   38 2    
    74   37   39 am   BACKBONE|DICT|INTERRES
    75   39   40 1    
    76   39  105 1    
    77   40   41 1    
    78   40   42 1    
    79   40  106 1    
    80   41  107 1    
    81   41  108 1    
    82   41  109 1    
    83   42   43 2    
    84   42   44 am   BACKBONE|DICT|INTERRES
    85   44   45 1    
    86   44  110 1    
    87   45   46 1    
    88   45   47 1    
    89   45  111 1    
    90   46  112 1    
    91   46  113 1    
    92   46  114 1    
    93   47   48 2    
    94   47   49 am   BACKBONE|DICT|INTERRES
    95   49   50 1    
    96   49  115 1    
    97   50   51 1    
    98   50   52 1    
    99   50  116 1    
   100   51  117 1    
   101   51  118 1    
   102   51  119 1    
   103   52   53 2    
   104   52   54 am   BACKBONE|DICT|INTERRES
   105   54   55 1    
   106   54  120 1    
   107   55   56 1    
   108   55   57 1    
   109   55  121 1    
   110   56  122 1    
   111   56  123 1    
   112   56  124 1    
   113   57   58 2    
   114   57   59 am   BACKBONE|DICT|INTERRES
   115   59   60 1    
   116   59  125 1    
   117   60   61 1    
   118   60   62 1    
   119   60  126 1    
   120   61  127 1    
   121   61  128 1    
   122   61  129 1    
   123   62   63 2    
   124   62   64 am   BACKBONE|DICT|INTERRES
   125   64   65 1    
   126   64  130 1    
   127   65   66 1    
   128   65   69 1    
   129   65  131 1    
   130   66   67 am   BACKBONE|DICT|INTERRES
   131   66   68 2    
   132   67  132 1    
   133   67  133 1    
   134   69   70 1    
   135   69  134 1    
   136   69  135 1    
   137   70   71 1    
   138   71  136 1    
   139   71  137 1    
@<TRIPOS>SUBSTRUCTURE
     1 UNK         1 GROUP             0       ****    0 ROOT    
