@<TRIPOS>MOLECULE
3R137
137   139    1
SMALL
USER_CHARGES


@<TRIPOS>ATOM
      1 CA         26.1298   -6.6030   -0.3334 C.3       0 UNK        -0.2020 
      2 C          26.1945   -5.1899    0.2257 C.2       0 UNK         0.4855 
      3 O          25.3189   -4.7958    0.9963 O.2       0 UNK        -0.5197 
      4 N          27.2263   -4.4255   -0.1554 N.am      1 UNK        -0.4892 
      5 CA         27.4545   -3.0375    0.2762 C.3       1 UNK         0.0835 
      6 C6         28.8867   -2.5553   -0.0642 C.3       12 UNK        -0.0855 
      7 S7         30.1991   -3.6840    0.5282 S.3       12 UNK        -0.2931 
      8 C8         31.7153   -2.7160    0.2173 C.3       12 UNK         0.0378 
      9 C9         31.7443   -2.1379   -1.1904 C.ar      12 UNK        -0.0802 
     10 C10        32.0082   -2.9583   -2.2925 C.ar      12 UNK        -0.0944 
     11 C11        31.9493   -2.4391   -3.5902 C.ar      12 UNK        -0.0787 
     12 C12        31.6289   -1.0908   -3.7776 C.ar      12 UNK        -0.0862 
     13 C13        31.3837   -0.2596   -2.6819 C.ar      12 UNK        -0.0733 
     14 C14        31.4551   -0.7851   -1.3904 C.ar      12 UNK        -0.0832 
     15 C15        31.0046    1.1976   -2.8943 C.3       12 UNK         0.0240 
     16 S16        29.2737    1.5339   -2.4295 S.3       12 UNK        -0.2522 
     17 C17        28.3444    0.3437   -3.4565 C.3       12 UNK        -0.0967 
     18 CA         28.2123    0.7732   -4.9387 C.3       5 UNK         0.0660 
     19 N          27.8357   -0.3577   -5.7894 N.am      5 UNK        -0.4015 
     20 C          27.9276   -0.3653   -7.1273 C.2       4 UNK         0.4946 
     21 O          28.4277    0.5484   -7.7837 O.2       4 UNK        -0.5353 
     22 CA         27.3430   -1.5787   -7.8731 C.3       4 UNK         0.0277 
     23 CB         28.4413   -2.6225   -8.1304 C.3       4 UNK        -0.1981 
     24 N          26.2174   -2.2170   -7.1845 N.am      4 UNK        -0.4209 
     25 C          25.0704   -1.6132   -6.8414 C.2       3 UNK         0.4942 
     26 O          24.8081   -0.4416   -7.1113 O.2       3 UNK        -0.5208 
     27 CA         24.0744   -2.4218   -5.9905 C.3       3 UNK         0.0250 
     28 CB         24.2555   -3.9524   -6.1096 C.3       3 UNK        -0.1990 
     29 N          24.0984   -2.0167   -4.5769 N.am      3 UNK        -0.4232 
     30 C          25.1665   -1.9740   -3.7648 C.2       2 UNK         0.4993 
     31 O          26.3206   -2.1986   -4.1408 O.2       2 UNK        -0.5286 
     32 CA         24.9272   -1.6311   -2.2855 C.3       2 UNK         0.0209 
     33 CB         23.4940   -1.9227   -1.7918 C.3       2 UNK        -0.1931 
     34 N          25.8917   -2.3966   -1.5017 N.am      2 UNK        -0.4546 
     35 C          26.4157   -2.0589   -0.3183 C.2       1 UNK         0.5154 
     36 O          26.1176   -1.0333    0.2954 O.2       1 UNK        -0.5181 
     37 C          27.2357    1.9551   -5.1093 C.2       5 UNK         0.5014 
     38 O          27.6799    3.0963   -5.2361 O.2       5 UNK        -0.5248 
     39 N          25.9276    1.6588   -5.1416 N.am      6 UNK        -0.4434 
     40 CA         24.8576    2.6440   -5.3198 C.3       6 UNK         0.0363 
     41 CB         23.5085    2.0142   -4.9362 C.3       6 UNK        -0.1936 
     42 C          24.8167    3.2056   -6.7503 C.2       6 UNK         0.5081 
     43 O          24.5837    4.4009   -6.9291 O.2       6 UNK        -0.5248 
     44 N          25.0763    2.3391   -7.7384 N.am      7 UNK        -0.4718 
     45 CA         25.1998    2.6913   -9.1549 C.3       7 UNK         0.0273 
     46 CB         25.1031    1.4048   -9.9914 C.3       7 UNK        -0.1935 
     47 C          26.4992    3.4463   -9.4956 C.2       7 UNK         0.5018 
     48 O          26.5728    4.0363  -10.5741 O.2       7 UNK        -0.5186 
     49 N          27.4947    3.3929   -8.5953 N.am      8 UNK        -0.4240 
     50 CA         28.8631    3.9061   -8.7387 C.3       8 UNK         0.0235 
     51 CB         28.8745    5.4477   -8.8122 C.3       8 UNK        -0.2000 
     52 C          29.6087    3.2328   -9.9082 C.2       8 UNK         0.4941 
     53 O          30.2663    3.9066  -10.7032 O.2       8 UNK        -0.5273 
     54 N          29.4772    1.9028   -9.9903 N.am      9 UNK        -0.4262 
     55 CA         29.9968    1.0593  -11.0690 C.3       9 UNK         0.0264 
     56 CB         28.9771   -0.0601  -11.3452 C.3       9 UNK        -0.1955 
     57 C          31.3928    0.4804  -10.7712 C.2       9 UNK         0.5031 
     58 O          31.8569   -0.3700  -11.5327 O.2       9 UNK        -0.5390 
     59 N          32.0284    0.9148   -9.6701 N.am      10 UNK        -0.4204 
     60 CA         33.3710    0.5281   -9.2058 C.3       10 UNK         0.0237 
     61 CB         34.4511    1.1334  -10.1280 C.3       10 UNK        -0.1985 
     62 C          33.5355   -0.9942   -9.0124 C.2       10 UNK         0.4970 
     63 O          34.5743   -1.5558   -9.3650 O.2       10 UNK        -0.4914 
     64 N          32.4833   -1.6247   -8.4747 N.am      11 UNK        -0.4285 
     65 CA         32.3367   -3.0771   -8.2751 C.3       11 UNK         0.1007 
     66 C          32.1656   -3.9011   -9.5884 C.2       11 UNK         0.5703 
     67 N          31.9727   -3.2860  -10.7503 N.am      11 UNK        -0.7361 
     68 O          32.1688   -5.1293   -9.5505 O.2       11 UNK        -0.4986 
     69 C69        33.3964   -3.7002   -7.3147 C.3       12 UNK        -0.0947 
     70 S70        33.6255   -2.7711   -5.7615 S.3       12 UNK        -0.2240 
     71 C71        32.1886   -3.3329   -4.7978 C.3       12 UNK         0.0194 
     72 H72        25.2086   -6.7408   -0.8989 H         1 UNK         0.0906 
     73 H73        26.9690   -6.8199   -0.9941 H         1 UNK         0.0906 
     74 H74        26.1426   -7.3288    0.4793 H         1 UNK         0.0906 
     75 H75        27.9404   -4.8132   -0.7564 H         1 UNK         0.3140 
     76 H76        27.3363   -3.0062    1.3618 H         1 UNK         0.1085 
     77 H77        29.0624   -1.5664    0.3644 H         1 UNK         0.0836 
     78 H78        28.9968   -2.4457   -1.1454 H         1 UNK         0.0836 
     79 H79        32.5855   -3.3563    0.3689 H         1 UNK         0.0731 
     80 H80        31.7877   -1.9213    0.9616 H         1 UNK         0.0731 
     81 H81        32.2278   -4.0060   -2.1378 H         1 UNK         0.1312 
     82 H82        31.5651   -0.6931   -4.7814 H         1 UNK         0.1406 
     83 H83        31.2418   -0.1459   -0.5440 H         1 UNK         0.1631 
     84 H84        31.6598    1.8301   -2.2938 H         1 UNK         0.0717 
     85 H85        31.1633    1.4952   -3.9317 H         1 UNK         0.0717 
     86 H86        28.8257   -0.6323   -3.3851 H         1 UNK         0.0934 
     87 H87        27.3626    0.2033   -3.0025 H         1 UNK         0.0934 
     88 H88        29.1919    1.1100   -5.2836 H         1 UNK         0.0739 
     89 H89        27.4009   -1.1504   -5.3220 H         1 UNK         0.3093 
     90 H90        26.9752   -1.2221   -8.8365 H         1 UNK         0.0818 
     91 H91        29.2877   -2.1793   -8.6553 H         1 UNK         0.0819 
     92 H92        28.0741   -3.4410   -8.7498 H         1 UNK         0.0819 
     93 H93        28.8199   -3.0482   -7.2001 H         1 UNK         0.0819 
     94 H94        26.3550   -3.1692   -6.8777 H         1 UNK         0.3041 
     95 H95        23.0822   -2.1760   -6.3723 H         1 UNK         0.0784 
     96 H96        24.2396   -4.2727   -7.1524 H         1 UNK         0.0793 
     97 H97        25.1904   -4.2984   -5.6674 H         1 UNK         0.0793 
     98 H98        23.4448   -4.4780   -5.6047 H         1 UNK         0.0793 
     99 H99        23.1976   -1.7883   -4.1799 H         1 UNK         0.3024 
    100 H100       25.1340   -0.5657   -2.1639 H         1 UNK         0.1171 
    101 H101       23.3996   -1.7282   -0.7231 H         1 UNK         0.0786 
    102 H102       22.7604   -1.2881   -2.2901 H         1 UNK         0.0786 
    103 H103       23.2116   -2.9628   -1.9614 H         1 UNK         0.0786 
    104 H104       26.2514   -3.2224   -1.9618 H         1 UNK         0.2977 
    105 H105       25.6481    0.6890   -5.1321 H         1 UNK         0.3127 
    106 H106       25.0480    3.4787   -4.6413 H         1 UNK         0.0770 
    107 H107       23.5109    1.6678   -3.9026 H         1 UNK         0.0814 
    108 H108       23.2579    1.1665   -5.5749 H         1 UNK         0.0814 
    109 H109       22.7007    2.7412   -5.0312 H         1 UNK         0.0814 
    110 H110       25.1660    1.3526   -7.5027 H         1 UNK         0.2983 
    111 H111       24.3638    3.3416   -9.4214 H         1 UNK         0.0947 
    112 H112       25.1304    1.6282  -11.0588 H         1 UNK         0.0806 
    113 H113       24.1731    0.8709   -9.7950 H         1 UNK         0.0806 
    114 H114       25.9300    0.7269   -9.7793 H         1 UNK         0.0806 
    115 H115       27.3211    2.8614   -7.7525 H         1 UNK         0.3000 
    116 H116       29.3923    3.6155   -7.8296 H         1 UNK         0.0850 
    117 H117       29.8955    5.8309   -8.7962 H         1 UNK         0.0810 
    118 H118       28.3500    5.8876   -7.9639 H         1 UNK         0.0810 
    119 H119       28.4049    5.8155   -9.7250 H         1 UNK         0.0810 
    120 H120       28.9714    1.4233   -9.2441 H         1 UNK         0.3040 
    121 H121       30.0909    1.6562  -11.9786 H         1 UNK         0.0766 
    122 H122       27.9961    0.3494  -11.5869 H         1 UNK         0.0812 
    123 H123       28.8619   -0.7201  -10.4867 H         1 UNK         0.0812 
    124 H124       29.2854   -0.6759  -12.1912 H         1 UNK         0.0812 
    125 H125       31.5458    1.5991   -9.1051 H         1 UNK         0.3205 
    126 H126       33.4964    0.9717   -8.2168 H         1 UNK         0.0754 
    127 H127       35.4515    0.9543   -9.7319 H         1 UNK         0.0769 
    128 H128       34.3311    2.2125  -10.2240 H         1 UNK         0.0769 
    129 H129       34.4147    0.7020  -11.1291 H         1 UNK         0.0769 
    130 H130       31.6764   -1.0699   -8.2337 H         1 UNK         0.2981 
    131 H131       31.3729   -3.1838   -7.7795 H         1 UNK         0.0541 
    132 H132       31.8517   -3.8438  -11.5802 H         1 UNK         0.3459 
    133 H133       31.9835   -2.2750  -10.8270 H         1 UNK         0.3459 
    134 H134       33.1268   -4.7267   -7.0603 H         1 UNK         0.0612 
    135 H135       34.3664   -3.7599   -7.8106 H         1 UNK         0.0612 
    136 H136       32.3450   -4.3698   -4.4963 H         1 UNK         0.0624 
    137 H137       31.2946   -3.3192   -5.4218 H         1 UNK         0.0624 
@<TRIPOS>BOND
     1    1    2 1    
     2    1   72 1    
     3    1   73 1    
     4    1   74 1    
     5    2    3 2    
     6    2    4 am   BACKBONE|DICT|INTERRES
     7    4    5 1    
     8    4   75 1    
     9    5    6 1    
    10    5   35 1    
    11    5   76 1    
    12    6    7 1    
    13    6   77 1    
    14    6   78 1    
    15    7    8 1    
    16    8    9 1    
    17    8   79 1    
    18    8   80 1    
    19    9   10 ar   
    20    9   14 ar   
    21   10   11 ar   
    22   10   81 1    
    23   11   12 ar   
    24   11   71 1    
    25   12   13 ar   
    26   12   82 1    
    27   13   14 ar   
    28   13   15 1    
    29   14   83 1    
    30   15   16 1    
    31   15   84 1    
    32   15   85 1    
    33   16   17 1    
    34   17   18 1    
    35   17   86 1    
    36   17   87 1    
    37   18   19 1    
    38   18   37 1    
    39   18   88 1    
    40   19   20 am   BACKBONE|DICT|INTERRES
    41   19   89 1    
    42   20   21 2    
    43   20   22 1    
    44   22   23 1    
    45   22   24 1    
    46   22   90 1    
    47   23   91 1    
    48   23   92 1    
    49   23   93 1    
    50   24   25 am   BACKBONE|DICT|INTERRES
    51   24   94 1    
    52   25   26 2    
    53   25   27 1    
    54   27   28 1    
    55   27   29 1    
    56   27   95 1    
    57   28   96 1    
    58   28   97 1    
    59   28   98 1    
    60   29   30 am   BACKBONE|DICT|INTERRES
    61   29   99 1    
    62   30   31 2    
    63   30   32 1    
    64   32   33 1    
    65   32   34 1    
    66   32  100 1    
    67   33  101 1    
    68   33  102 1    
    69   33  103 1    
    70   34   35 am   BACKBONE|DICT|INTERRES
    71   34  104 1    
    72   35   36 2    
    73   37   38 2    
    74   37   39 am   BACKBONE|DICT|INTERRES
    75   39   40 1    
    76   39  105 1    
    77   40   41 1    
    78   40   42 1    
    79   40  106 1    
    80   41  107 1    
    81   41  108 1    
    82   41  109 1    
    83   42   43 2    
    84   42   44 am   BACKBONE|DICT|INTERRES
    85   44   45 1    
    86   44  110 1    
    87   45   46 1    
    88   45   47 1    
    89   45  111 1    
    90   46  112 1    
    91   46  113 1    
    92   46  114 1    
    93   47   48 2    
    94   47   49 am   BACKBONE|DICT|INTERRES
    95   49   50 1    
    96   49  115 1    
    97   50   51 1    
    98   50   52 1    
    99   50  116 1    
   100   51  117 1    
   101   51  118 1    
   102   51  119 1    
   103   52   53 2    
   104   52   54 am   BACKBONE|DICT|INTERRES
   105   54   55 1    
   106   54  120 1    
   107   55   56 1    
   108   55   57 1    
   109   55  121 1    
   110   56  122 1    
   111   56  123 1    
   112   56  124 1    
   113   57   58 2    
   114   57   59 am   BACKBONE|DICT|INTERRES
   115   59   60 1    
   116   59  125 1    
   117   60   61 1    
   118   60   62 1    
   119   60  126 1    
   120   61  127 1    
   121   61  128 1    
   122   61  129 1    
   123   62   63 2    
   124   62   64 am   BACKBONE|DICT|INTERRES
   125   64   65 1    
   126   64  130 1    
   127   65   66 1    
   128   65   69 1    
   129   65  131 1    
   130   66   67 am   BACKBONE|DICT|INTERRES
   131   66   68 2    
   132   67  132 1    
   133   67  133 1    
   134   69   70 1    
   135   69  134 1    
   136   69  135 1    
   137   70   71 1    
   138   71  136 1    
   139   71  137 1    
@<TRIPOS>SUBSTRUCTURE
     1 UNK         1 GROUP             0       ****    0 ROOT    
