@<TRIPOS>MOLECULE
3R137
137   139    1
SMALL
USER_CHARGES


@<TRIPOS>ATOM
      1 CA         28.2188   -4.9568   -7.9945 C.3       0 UNK        -0.2020 
      2 C          27.3581   -5.2997   -6.7881 C.2       0 UNK         0.4855 
      3 O          26.5518   -6.2280   -6.8533 O.2       0 UNK        -0.5197 
      4 N          27.5346   -4.5668   -5.6837 N.am      1 UNK        -0.4892 
      5 CA         26.7913   -4.7569   -4.4365 C.3       1 UNK         0.0835 
      6 C6         27.5778   -4.2205   -3.2211 C.3       12 UNK        -0.0855 
      7 S7         29.0074   -5.2585   -2.7638 S.3       12 UNK        -0.2931 
      8 C8         30.4202   -4.3577   -3.4958 C.3       12 UNK         0.0378 
      9 C9         30.7419   -2.9761   -2.9155 C.ar      12 UNK        -0.0802 
     10 C10        31.8667   -2.3079   -3.4086 C.ar      12 UNK        -0.0944 
     11 C11        32.2011   -1.0287   -2.9562 C.ar      12 UNK        -0.0787 
     12 C12        31.3769   -0.3912   -2.0247 C.ar      12 UNK        -0.0862 
     13 C13        30.2447   -1.0415   -1.5224 C.ar      12 UNK        -0.0733 
     14 C14        29.9597   -2.3438   -1.9389 C.ar      12 UNK        -0.0832 
     15 C15        29.3105   -0.3370   -0.5447 C.3       12 UNK         0.0240 
     16 S16        27.6422   -0.0679   -1.2473 S.3       12 UNK        -0.2522 
     17 C17        28.0220    0.8968   -2.7474 C.3       12 UNK        -0.0967 
     18 CA         27.7546    0.0671   -4.0404 C.3       5 UNK         0.0660 
     19 N          26.3319    0.0144   -4.4110 N.am      5 UNK        -0.4015 
     20 C          25.6194    1.0362   -4.9152 C.2       4 UNK         0.4946 
     21 O          26.0661    2.1732   -5.0822 O.2       4 UNK        -0.5353 
     22 CA         24.1700    0.7465   -5.3301 C.3       4 UNK         0.0277 
     23 CB         24.1219    0.0509   -6.7000 C.3       4 UNK        -0.1981 
     24 N          23.4387   -0.0647   -4.3605 N.am      4 UNK        -0.4209 
     25 C          23.0343    0.3405   -3.1473 C.2       3 UNK         0.4942 
     26 O          23.2729    1.4566   -2.6849 O.2       3 UNK        -0.5208 
     27 CA         22.1824   -0.6474   -2.3231 C.3       3 UNK         0.0250 
     28 CB         20.7384   -0.1339   -2.1882 C.3       3 UNK        -0.1990 
     29 N          22.1540   -1.9893   -2.9145 N.am      3 UNK        -0.4232 
     30 C          23.1220   -2.8994   -2.7538 C.2       2 UNK         0.4993 
     31 O          24.0448   -2.7696   -1.9459 O.2       2 UNK        -0.5286 
     32 CA         23.0662   -4.1515   -3.6559 C.3       2 UNK         0.0209 
     33 CB         22.3000   -3.9366   -4.9829 C.3       2 UNK        -0.1931 
     34 N          24.4092   -4.6830   -3.9219 N.am      2 UNK        -0.4546 
     35 C          25.4322   -4.0397   -4.5065 C.2       1 UNK         0.5154 
     36 O          25.3611   -2.9082   -4.9998 O.2       1 UNK        -0.5181 
     37 C          28.5905    0.4990   -5.2640 C.2       5 UNK         0.5014 
     38 O          28.5763   -0.2119   -6.2716 O.2       5 UNK        -0.5248 
     39 N          29.2512    1.6634   -5.1923 N.am      6 UNK        -0.4434 
     40 CA         30.0734    2.2463   -6.2539 C.3       6 UNK         0.0363 
     41 CB         30.7154    3.5453   -5.7457 C.3       6 UNK        -0.1936 
     42 C          29.3305    2.4958   -7.5744 C.2       6 UNK         0.5081 
     43 O          29.9615    2.4230   -8.6273 O.2       6 UNK        -0.5248 
     44 N          28.0107    2.7266   -7.5189 N.am      7 UNK        -0.4718 
     45 CA         27.1658    2.8837   -8.7072 C.3       7 UNK         0.0273 
     46 CB         25.8034    3.4671   -8.2991 C.3       7 UNK        -0.1935 
     47 C          27.0002    1.5884   -9.5281 C.2       7 UNK         0.5018 
     48 O          26.6335    1.6770  -10.7005 O.2       7 UNK        -0.5186 
     49 N          27.2824    0.4266   -8.9199 N.am      8 UNK        -0.4240 
     50 CA         27.3087   -0.8766   -9.5853 C.3       8 UNK         0.0235 
     51 CB         26.4128   -1.8632   -8.8183 C.3       8 UNK        -0.2000 
     52 C          28.7418   -1.4188   -9.6973 C.2       8 UNK         0.4941 
     53 O          29.1053   -1.9406  -10.7513 O.2       8 UNK        -0.5273 
     54 N          29.5259   -1.3063   -8.6155 N.am      9 UNK        -0.4262 
     55 CA         30.8749   -1.8667   -8.5019 C.3       9 UNK         0.0264 
     56 CB         31.2259   -2.0204   -7.0122 C.3       9 UNK        -0.1955 
     57 C          31.9654   -1.0597   -9.2277 C.2       9 UNK         0.5031 
     58 O          33.0254   -1.6236   -9.5016 O.2       9 UNK        -0.5390 
     59 N          31.7159    0.2321   -9.4978 N.am      10 UNK        -0.4204 
     60 CA         32.6293    1.2028  -10.1232 C.3       10 UNK         0.0237 
     61 CB         32.9825    0.7871  -11.5680 C.3       10 UNK        -0.1985 
     62 C          33.8786    1.5400   -9.2793 C.2       10 UNK         0.4970 
     63 O          34.8439    2.0840   -9.8192 O.2       10 UNK        -0.4914 
     64 N          33.8424    1.2293   -7.9775 N.am      11 UNK        -0.4285 
     65 CA         34.8775    1.5625   -6.9904 C.3       11 UNK         0.1007 
     66 C          34.9395    3.0774   -6.6427 C.2       11 UNK         0.5703 
     67 N          36.0294    3.5262   -6.0341 N.am      11 UNK        -0.7361 
     68 O          34.0162    3.8465   -6.9028 O.2       11 UNK        -0.4986 
     69 C69        34.7693    0.6600   -5.7304 C.3       12 UNK        -0.0947 
     70 S70        33.1178    0.6399   -4.9550 S.3       12 UNK        -0.2240 
     71 C71        33.4602   -0.3499   -3.4727 C.3       12 UNK         0.0194 
     72 H72        28.9942   -5.7107   -8.1268 H         1 UNK         0.0906 
     73 H73        27.6126   -4.9332   -8.8994 H         1 UNK         0.0906 
     74 H74        28.7019   -3.9874   -7.8840 H         1 UNK         0.0906 
     75 H75        28.1658   -3.7803   -5.6992 H         1 UNK         0.3140 
     76 H76        26.6137   -5.8254   -4.2913 H         1 UNK         0.1085 
     77 H77        26.9392   -4.1728   -2.3356 H         1 UNK         0.0836 
     78 H78        27.8919   -3.1961   -3.4144 H         1 UNK         0.0836 
     79 H79        31.3031   -4.9893   -3.3868 H         1 UNK         0.0731 
     80 H80        30.2488   -4.2595   -4.5681 H         1 UNK         0.0731 
     81 H81        32.4904   -2.7874   -4.1510 H         1 UNK         0.1312 
     82 H82        31.6181    0.6101   -1.6946 H         1 UNK         0.1406 
     83 H83        29.0974   -2.8344   -1.5132 H         1 UNK         0.1631 
     84 H84        29.7244    0.6241   -0.2354 H         1 UNK         0.0717 
     85 H85        29.2202   -0.9376    0.3614 H         1 UNK         0.0717 
     86 H86        27.4310    1.8140   -2.7343 H         1 UNK         0.0934 
     87 H87        29.0624    1.2135   -2.6706 H         1 UNK         0.0934 
     88 H88        28.0637   -0.9606   -3.8538 H         1 UNK         0.0739 
     89 H89        25.9010   -0.9032   -4.3833 H         1 UNK         0.3093 
     90 H90        23.6579    1.7072   -5.4190 H         1 UNK         0.0818 
     91 H91        23.0995   -0.0236   -7.0706 H         1 UNK         0.0819 
     92 H92        24.6954    0.5979   -7.4475 H         1 UNK         0.0819 
     93 H93        24.5330   -0.9574   -6.6520 H         1 UNK         0.0819 
     94 H94        23.2246   -1.0101   -4.6393 H         1 UNK         0.3041 
     95 H95        22.6193   -0.7012   -1.3234 H         1 UNK         0.0784 
     96 H96        20.7157    0.8490   -1.7153 H         1 UNK         0.0793 
     97 H97        20.2494   -0.0394   -3.1586 H         1 UNK         0.0793 
     98 H98        20.1361   -0.8011   -1.5711 H         1 UNK         0.0793 
     99 H99        21.4085   -2.1814   -3.5689 H         1 UNK         0.3024 
    100 H100       22.5375   -4.9142   -3.0815 H         1 UNK         0.1171 
    101 H101       22.3400   -4.8314   -5.6044 H         1 UNK         0.0786 
    102 H102       22.7129   -3.1147   -5.5689 H         1 UNK         0.0786 
    103 H103       21.2443   -3.7262   -4.8089 H         1 UNK         0.0786 
    104 H104       24.5952   -5.5877   -3.5115 H         1 UNK         0.2977 
    105 H105       29.1607    2.2121   -4.3505 H         1 UNK         0.3127 
    106 H106       30.8674    1.5340   -6.4780 H         1 UNK         0.0770 
    107 H107       29.9653    4.2780   -5.4460 H         1 UNK         0.0814 
    108 H108       31.3278    4.0062   -6.5220 H         1 UNK         0.0814 
    109 H109       31.3686    3.3587   -4.8930 H         1 UNK         0.0814 
    110 H110       27.5453    2.7316   -6.6172 H         1 UNK         0.2983 
    111 H111       27.6517    3.6075   -9.3655 H         1 UNK         0.0947 
    112 H112       25.1576    3.5998   -9.1682 H         1 UNK         0.0806 
    113 H113       25.9179    4.4447   -7.8308 H         1 UNK         0.0806 
    114 H114       25.2762    2.8239   -7.5968 H         1 UNK         0.0806 
    115 H115       27.5979    0.4503   -7.9565 H         1 UNK         0.3000 
    116 H116       26.9160   -0.7949  -10.6011 H         1 UNK         0.0850 
    117 H117       26.4453   -2.8535   -9.2726 H         1 UNK         0.0810 
    118 H118       25.3722   -1.5418   -8.8405 H         1 UNK         0.0810 
    119 H119       26.7126   -1.9665   -7.7741 H         1 UNK         0.0810 
    120 H120       29.1444   -0.8872   -7.7669 H         1 UNK         0.3040 
    121 H121       30.8675   -2.8637   -8.9481 H         1 UNK         0.0766 
    122 H122       32.2217   -2.4466   -6.8825 H         1 UNK         0.0812 
    123 H123       30.5231   -2.6800   -6.5048 H         1 UNK         0.0812 
    124 H124       31.2118   -1.0622   -6.4934 H         1 UNK         0.0812 
    125 H125       30.8247    0.6246   -9.2122 H         1 UNK         0.3205 
    126 H126       32.0684    2.1356  -10.1902 H         1 UNK         0.0754 
    127 H127       33.5111    1.5870  -12.0879 H         1 UNK         0.0769 
    128 H128       32.0858    0.5652  -12.1467 H         1 UNK         0.0769 
    129 H129       33.6249   -0.0934  -11.5927 H         1 UNK         0.0769 
    130 H130       33.0074    0.8073   -7.6037 H         1 UNK         0.2981 
    131 H131       35.8350    1.3302   -7.4608 H         1 UNK         0.0541 
    132 H132       36.7958    2.9104   -5.8115 H         1 UNK         0.3459 
    133 H133       36.0870    4.5038   -5.7954 H         1 UNK         0.3459 
    134 H134       35.5102    0.9442   -4.9811 H         1 UNK         0.0612 
    135 H135       35.0113   -0.3669   -6.0086 H         1 UNK         0.0612 
    136 H136       34.2142   -1.1048   -3.7014 H         1 UNK         0.0624 
    137 H137       33.8914    0.2924   -2.7034 H         1 UNK         0.0624 
@<TRIPOS>BOND
     1    1    2 1    
     2    1   72 1    
     3    1   73 1    
     4    1   74 1    
     5    2    3 2    
     6    2    4 am   BACKBONE|DICT|INTERRES
     7    4    5 1    
     8    4   75 1    
     9    5    6 1    
    10    5   35 1    
    11    5   76 1    
    12    6    7 1    
    13    6   77 1    
    14    6   78 1    
    15    7    8 1    
    16    8    9 1    
    17    8   79 1    
    18    8   80 1    
    19    9   10 ar   
    20    9   14 ar   
    21   10   11 ar   
    22   10   81 1    
    23   11   12 ar   
    24   11   71 1    
    25   12   13 ar   
    26   12   82 1    
    27   13   14 ar   
    28   13   15 1    
    29   14   83 1    
    30   15   16 1    
    31   15   84 1    
    32   15   85 1    
    33   16   17 1    
    34   17   18 1    
    35   17   86 1    
    36   17   87 1    
    37   18   19 1    
    38   18   37 1    
    39   18   88 1    
    40   19   20 am   BACKBONE|DICT|INTERRES
    41   19   89 1    
    42   20   21 2    
    43   20   22 1    
    44   22   23 1    
    45   22   24 1    
    46   22   90 1    
    47   23   91 1    
    48   23   92 1    
    49   23   93 1    
    50   24   25 am   BACKBONE|DICT|INTERRES
    51   24   94 1    
    52   25   26 2    
    53   25   27 1    
    54   27   28 1    
    55   27   29 1    
    56   27   95 1    
    57   28   96 1    
    58   28   97 1    
    59   28   98 1    
    60   29   30 am   BACKBONE|DICT|INTERRES
    61   29   99 1    
    62   30   31 2    
    63   30   32 1    
    64   32   33 1    
    65   32   34 1    
    66   32  100 1    
    67   33  101 1    
    68   33  102 1    
    69   33  103 1    
    70   34   35 am   BACKBONE|DICT|INTERRES
    71   34  104 1    
    72   35   36 2    
    73   37   38 2    
    74   37   39 am   BACKBONE|DICT|INTERRES
    75   39   40 1    
    76   39  105 1    
    77   40   41 1    
    78   40   42 1    
    79   40  106 1    
    80   41  107 1    
    81   41  108 1    
    82   41  109 1    
    83   42   43 2    
    84   42   44 am   BACKBONE|DICT|INTERRES
    85   44   45 1    
    86   44  110 1    
    87   45   46 1    
    88   45   47 1    
    89   45  111 1    
    90   46  112 1    
    91   46  113 1    
    92   46  114 1    
    93   47   48 2    
    94   47   49 am   BACKBONE|DICT|INTERRES
    95   49   50 1    
    96   49  115 1    
    97   50   51 1    
    98   50   52 1    
    99   50  116 1    
   100   51  117 1    
   101   51  118 1    
   102   51  119 1    
   103   52   53 2    
   104   52   54 am   BACKBONE|DICT|INTERRES
   105   54   55 1    
   106   54  120 1    
   107   55   56 1    
   108   55   57 1    
   109   55  121 1    
   110   56  122 1    
   111   56  123 1    
   112   56  124 1    
   113   57   58 2    
   114   57   59 am   BACKBONE|DICT|INTERRES
   115   59   60 1    
   116   59  125 1    
   117   60   61 1    
   118   60   62 1    
   119   60  126 1    
   120   61  127 1    
   121   61  128 1    
   122   61  129 1    
   123   62   63 2    
   124   62   64 am   BACKBONE|DICT|INTERRES
   125   64   65 1    
   126   64  130 1    
   127   65   66 1    
   128   65   69 1    
   129   65  131 1    
   130   66   67 am   BACKBONE|DICT|INTERRES
   131   66   68 2    
   132   67  132 1    
   133   67  133 1    
   134   69   70 1    
   135   69  134 1    
   136   69  135 1    
   137   70   71 1    
   138   71  136 1    
   139   71  137 1    
@<TRIPOS>SUBSTRUCTURE
     1 UNK         1 GROUP             0       ****    0 ROOT    
