@<TRIPOS>MOLECULE
3R137
137   139    1
SMALL
USER_CHARGES


@<TRIPOS>ATOM
      1 CA         29.8007   -4.3402   -6.6868 C.3       0 UNK        -0.2020 
      2 C          29.0730   -5.0448   -5.5504 C.2       0 UNK         0.4855 
      3 O          28.9087   -6.2641   -5.5885 O.2       0 UNK        -0.5197 
      4 N          28.6239   -4.2843   -4.5477 N.am      1 UNK        -0.4892 
      5 CA         27.8339   -4.7425   -3.4084 C.3       1 UNK         0.0835 
      6 C6         28.6975   -5.4837   -2.3446 C.3       12 UNK        -0.0855 
      7 S7         29.6105   -4.4631   -1.1302 S.3       12 UNK        -0.2931 
      8 C8         31.0146   -3.8137   -2.1000 C.3       12 UNK         0.0378 
      9 C9         30.7612   -2.4082   -2.6394 C.ar      12 UNK        -0.0802 
     10 C10        31.0108   -2.1099   -3.9835 C.ar      12 UNK        -0.0944 
     11 C11        30.7965   -0.8186   -4.4748 C.ar      12 UNK        -0.0787 
     12 C12        30.3641    0.1835   -3.6048 C.ar      12 UNK        -0.0862 
     13 C13        30.0849   -0.0991   -2.2651 C.ar      12 UNK        -0.0733 
     14 C14        30.3016   -1.3952   -1.7887 C.ar      12 UNK        -0.0832 
     15 C15        29.5566    0.9736   -1.3132 C.3       12 UNK         0.0240 
     16 S16        28.4588    2.2154   -2.0883 S.3       12 UNK        -0.2522 
     17 C17        27.1266    1.1841   -2.7942 C.3       12 UNK        -0.0967 
     18 CA         27.0935    1.2246   -4.3457 C.3       5 UNK         0.0660 
     19 N          26.4934    0.0089   -4.8966 N.am      5 UNK        -0.4015 
     20 C          26.4254   -0.3153   -6.1944 C.2       4 UNK         0.4946 
     21 O          26.9963    0.3185   -7.0823 O.2       4 UNK        -0.5353 
     22 CA         25.5308   -1.5052   -6.5878 C.3       4 UNK         0.0277 
     23 CB         26.3711   -2.6773   -7.1055 C.3       4 UNK        -0.1981 
     24 N          24.6534   -1.9771   -5.5124 N.am      4 UNK        -0.4209 
     25 C          23.6061   -1.3001   -5.0199 C.2       3 UNK         0.4942 
     26 O          23.2757   -0.1778   -5.4044 O.2       3 UNK        -0.5208 
     27 CA         22.8365   -1.9759   -3.8737 C.3       3 UNK         0.0250 
     28 CB         21.8579   -3.0285   -4.4192 C.3       3 UNK        -0.1990 
     29 N          23.7378   -2.5949   -2.8961 N.am      3 UNK        -0.4232 
     30 C          24.4884   -1.9004   -2.0291 C.2       2 UNK         0.4993 
     31 O          24.4639   -0.6737   -1.9324 O.2       2 UNK        -0.5286 
     32 CA         25.4551   -2.7060   -1.1443 C.3       2 UNK         0.0209 
     33 CB         24.7158   -3.3131    0.0591 C.3       2 UNK        -0.1931 
     34 N          26.1903   -3.7599   -1.8562 N.am      2 UNK        -0.4546 
     35 C          27.0273   -3.5386   -2.8801 C.2       1 UNK         0.5154 
     36 O          27.1712   -2.4333   -3.4097 O.2       1 UNK        -0.5181 
     37 C          26.4214    2.5108   -4.8772 C.2       5 UNK         0.5014 
     38 O          27.1054    3.5213   -5.0426 O.2       5 UNK        -0.5248 
     39 N          25.1151    2.4473   -5.1855 N.am      6 UNK        -0.4434 
     40 CA         24.3723    3.5369   -5.8255 C.3       6 UNK         0.0363 
     41 CB         22.8643    3.2640   -5.7119 C.3       6 UNK        -0.1936 
     42 C          24.7716    3.7515   -7.2978 C.2       6 UNK         0.5081 
     43 O          24.7113    4.8833   -7.7786 O.2       6 UNK        -0.5248 
     44 N          25.1708    2.6717   -7.9844 N.am      7 UNK        -0.4718 
     45 CA         25.6555    2.6985   -9.3668 C.3       7 UNK         0.0273 
     46 CB         25.3476    1.3464  -10.0326 C.3       7 UNK        -0.1935 
     47 C          27.1607    3.0044   -9.4580 C.2       7 UNK         0.5018 
     48 O          27.6005    3.5225  -10.4847 O.2       7 UNK        -0.5186 
     49 N          27.9107    2.6592   -8.3993 N.am      8 UNK        -0.4240 
     50 CA         29.3727    2.6855   -8.2799 C.3       8 UNK         0.0235 
     51 CB         29.9237    4.1241   -8.3681 C.3       8 UNK        -0.2000 
     52 C          30.0254    1.7139   -9.2800 C.2       8 UNK         0.4941 
     53 O          30.8899    2.1090  -10.0663 O.2       8 UNK        -0.5273 
     54 N          29.5615    0.4561   -9.2529 N.am      9 UNK        -0.4262 
     55 CA         29.9610   -0.6275  -10.1554 C.3       9 UNK         0.0264 
     56 CB         28.9407   -1.7724  -10.0279 C.3       9 UNK        -0.1955 
     57 C          31.4057   -1.1147   -9.9197 C.2       9 UNK         0.5031 
     58 O          31.6063   -2.2124   -9.3940 O.2       9 UNK        -0.5390 
     59 N          32.3832   -0.2807  -10.3007 N.am      10 UNK        -0.4204 
     60 CA         33.8444   -0.4626  -10.2576 C.3       10 UNK         0.0237 
     61 CB         34.2919   -1.6710  -11.1036 C.3       10 UNK        -0.1985 
     62 C          34.4387   -0.5247   -8.8390 C.2       10 UNK         0.4970 
     63 O          35.4194    0.1691   -8.5685 O.2       10 UNK        -0.4914 
     64 N          33.8226   -1.3290   -7.9672 N.am      11 UNK        -0.4285 
     65 CA         34.0832   -1.4409   -6.5229 C.3       11 UNK         0.1007 
     66 C          35.4524   -2.0812   -6.1441 C.2       11 UNK         0.5703 
     67 N          36.1440   -2.7495   -7.0597 N.am      11 UNK        -0.7361 
     68 O          35.8824   -2.0033   -4.9955 O.2       11 UNK        -0.4986 
     69 C69        33.8023   -0.1171   -5.7476 C.3       12 UNK        -0.0947 
     70 S70        32.2700    0.7595   -6.2291 S.3       12 UNK        -0.2240 
     71 C71        30.9865   -0.4998   -5.9496 C.3       12 UNK         0.0194 
     72 H72        29.4178   -4.6812   -7.6484 H         1 UNK         0.0906 
     73 H73        29.6708   -3.2596   -6.6432 H         1 UNK         0.0906 
     74 H74        30.8670   -4.5607   -6.6487 H         1 UNK         0.0906 
     75 H75        28.7378   -3.2763   -4.5531 H         1 UNK         0.3140 
     76 H76        27.0954   -5.4487   -3.7950 H         1 UNK         0.1085 
     77 H77        29.4003   -6.1633   -2.8290 H         1 UNK         0.0836 
     78 H78        28.0442   -6.1359   -1.7631 H         1 UNK         0.0836 
     79 H79        31.2549   -4.5083   -2.9064 H         1 UNK         0.0731 
     80 H80        31.8934   -3.7780   -1.4551 H         1 UNK         0.0731 
     81 H81        31.3660   -2.8852   -4.6473 H         1 UNK         0.1312 
     82 H82        30.2304    1.1862   -3.9843 H         1 UNK         0.1406 
     83 H83        30.1063   -1.6222   -0.7495 H         1 UNK         0.1631 
     84 H84        30.4072    1.4911   -0.8682 H         1 UNK         0.0717 
     85 H85        29.0115    0.5090   -0.4899 H         1 UNK         0.0717 
     86 H86        27.2745    0.1590   -2.4495 H         1 UNK         0.0934 
     87 H87        26.1703    1.4941   -2.3681 H         1 UNK         0.0934 
     88 H88        28.1149    1.2384   -4.7238 H         1 UNK         0.0739 
     89 H89        26.0939   -0.6358   -4.2271 H         1 UNK         0.3093 
     90 H90        24.8940   -1.1620   -7.4061 H         1 UNK         0.0818 
     91 H91        26.9570   -2.3773   -7.9721 H         1 UNK         0.0819 
     92 H92        25.7457   -3.5146   -7.4155 H         1 UNK         0.0819 
     93 H93        27.0619   -3.0329   -6.3454 H         1 UNK         0.0819 
     94 H94        24.8726   -2.8771   -5.1128 H         1 UNK         0.3041 
     95 H95        22.2542   -1.2040   -3.3652 H         1 UNK         0.0784 
     96 H96        21.1695   -2.5833   -5.1391 H         1 UNK         0.0793 
     97 H97        22.3751   -3.8448   -4.9250 H         1 UNK         0.0793 
     98 H98        21.2536   -3.4585   -3.6201 H         1 UNK         0.0793 
     99 H99        23.8106   -3.6022   -2.9003 H         1 UNK         0.3024 
    100 H100       26.1967   -1.9995   -0.7634 H         1 UNK         0.1171 
    101 H101       25.4113   -3.7807    0.7565 H         1 UNK         0.0786 
    102 H102       24.1742   -2.5446    0.6127 H         1 UNK         0.0786 
    103 H103       23.9896   -4.0668   -0.2478 H         1 UNK         0.0786 
    104 H104       26.1267   -4.6919   -1.4725 H         1 UNK         0.2977 
    105 H105       24.6122    1.5787   -5.0406 H         1 UNK         0.3127 
    106 H106       24.5916    4.4609   -5.2858 H         1 UNK         0.0770 
    107 H107       22.5768    2.3548   -6.2415 H         1 UNK         0.0814 
    108 H108       22.2869    4.0853   -6.1387 H         1 UNK         0.0814 
    109 H109       22.5562    3.1578   -4.6717 H         1 UNK         0.0814 
    110 H110       25.2168    1.7831   -7.5058 H         1 UNK         0.2983 
    111 H111       25.1254    3.4778   -9.9194 H         1 UNK         0.0947 
    112 H112       25.6633    1.3466  -11.0769 H         1 UNK         0.0806 
    113 H113       24.2791    1.1310  -10.0184 H         1 UNK         0.0806 
    114 H114       25.8634    0.5219   -9.5390 H         1 UNK         0.0806 
    115 H115       27.4339    2.1508   -7.6617 H         1 UNK         0.3000 
    116 H116       29.6055    2.3075   -7.2831 H         1 UNK         0.0850 
    117 H117       30.9956    4.1397   -8.1673 H         1 UNK         0.0810 
    118 H118       29.4460    4.7751   -7.6359 H         1 UNK         0.0810 
    119 H119       29.7735    4.5609   -9.3557 H         1 UNK         0.0810 
    120 H120       28.8375    0.2355   -8.5802 H         1 UNK         0.3040 
    121 H121       29.9068   -0.2502  -11.1789 H         1 UNK         0.0766 
    122 H122       27.9245   -1.4286  -10.2220 H         1 UNK         0.0812 
    123 H123       28.9665   -2.2181   -9.0337 H         1 UNK         0.0812 
    124 H124       29.1568   -2.5670  -10.7432 H         1 UNK         0.0812 
    125 H125       32.0737    0.6488  -10.5771 H         1 UNK         0.3205 
    126 H126       34.2590    0.4315  -10.7260 H         1 UNK         0.0754 
    127 H127       35.3800   -1.7403  -11.1370 H         1 UNK         0.0769 
    128 H128       33.9418   -1.5842  -12.1323 H         1 UNK         0.0769 
    129 H129       33.9198   -2.6142  -10.7025 H         1 UNK         0.0769 
    130 H130       33.0244   -1.8526   -8.3210 H         1 UNK         0.2981 
    131 H131       33.3585   -2.1738   -6.1705 H         1 UNK         0.0541 
    132 H132       35.7982   -2.8265   -8.0024 H         1 UNK         0.3459 
    133 H133       37.0235   -3.1706   -6.8055 H         1 UNK         0.3459 
    134 H134       33.7531   -0.3121   -4.6748 H         1 UNK         0.0612 
    135 H135       34.6293    0.5806   -5.8886 H         1 UNK         0.0612 
    136 H136       30.0418   -0.1227   -6.3434 H         1 UNK         0.0624 
    137 H137       31.2133   -1.3947   -6.5283 H         1 UNK         0.0624 
@<TRIPOS>BOND
     1    1    2 1    
     2    1   72 1    
     3    1   73 1    
     4    1   74 1    
     5    2    3 2    
     6    2    4 am   BACKBONE|DICT|INTERRES
     7    4    5 1    
     8    4   75 1    
     9    5    6 1    
    10    5   35 1    
    11    5   76 1    
    12    6    7 1    
    13    6   77 1    
    14    6   78 1    
    15    7    8 1    
    16    8    9 1    
    17    8   79 1    
    18    8   80 1    
    19    9   10 ar   
    20    9   14 ar   
    21   10   11 ar   
    22   10   81 1    
    23   11   12 ar   
    24   11   71 1    
    25   12   13 ar   
    26   12   82 1    
    27   13   14 ar   
    28   13   15 1    
    29   14   83 1    
    30   15   16 1    
    31   15   84 1    
    32   15   85 1    
    33   16   17 1    
    34   17   18 1    
    35   17   86 1    
    36   17   87 1    
    37   18   19 1    
    38   18   37 1    
    39   18   88 1    
    40   19   20 am   BACKBONE|DICT|INTERRES
    41   19   89 1    
    42   20   21 2    
    43   20   22 1    
    44   22   23 1    
    45   22   24 1    
    46   22   90 1    
    47   23   91 1    
    48   23   92 1    
    49   23   93 1    
    50   24   25 am   BACKBONE|DICT|INTERRES
    51   24   94 1    
    52   25   26 2    
    53   25   27 1    
    54   27   28 1    
    55   27   29 1    
    56   27   95 1    
    57   28   96 1    
    58   28   97 1    
    59   28   98 1    
    60   29   30 am   BACKBONE|DICT|INTERRES
    61   29   99 1    
    62   30   31 2    
    63   30   32 1    
    64   32   33 1    
    65   32   34 1    
    66   32  100 1    
    67   33  101 1    
    68   33  102 1    
    69   33  103 1    
    70   34   35 am   BACKBONE|DICT|INTERRES
    71   34  104 1    
    72   35   36 2    
    73   37   38 2    
    74   37   39 am   BACKBONE|DICT|INTERRES
    75   39   40 1    
    76   39  105 1    
    77   40   41 1    
    78   40   42 1    
    79   40  106 1    
    80   41  107 1    
    81   41  108 1    
    82   41  109 1    
    83   42   43 2    
    84   42   44 am   BACKBONE|DICT|INTERRES
    85   44   45 1    
    86   44  110 1    
    87   45   46 1    
    88   45   47 1    
    89   45  111 1    
    90   46  112 1    
    91   46  113 1    
    92   46  114 1    
    93   47   48 2    
    94   47   49 am   BACKBONE|DICT|INTERRES
    95   49   50 1    
    96   49  115 1    
    97   50   51 1    
    98   50   52 1    
    99   50  116 1    
   100   51  117 1    
   101   51  118 1    
   102   51  119 1    
   103   52   53 2    
   104   52   54 am   BACKBONE|DICT|INTERRES
   105   54   55 1    
   106   54  120 1    
   107   55   56 1    
   108   55   57 1    
   109   55  121 1    
   110   56  122 1    
   111   56  123 1    
   112   56  124 1    
   113   57   58 2    
   114   57   59 am   BACKBONE|DICT|INTERRES
   115   59   60 1    
   116   59  125 1    
   117   60   61 1    
   118   60   62 1    
   119   60  126 1    
   120   61  127 1    
   121   61  128 1    
   122   61  129 1    
   123   62   63 2    
   124   62   64 am   BACKBONE|DICT|INTERRES
   125   64   65 1    
   126   64  130 1    
   127   65   66 1    
   128   65   69 1    
   129   65  131 1    
   130   66   67 am   BACKBONE|DICT|INTERRES
   131   66   68 2    
   132   67  132 1    
   133   67  133 1    
   134   69   70 1    
   135   69  134 1    
   136   69  135 1    
   137   70   71 1    
   138   71  136 1    
   139   71  137 1    
@<TRIPOS>SUBSTRUCTURE
     1 UNK         1 GROUP             0       ****    0 ROOT    
