@<TRIPOS>MOLECULE
3R137
137   139    1
SMALL
USER_CHARGES


@<TRIPOS>ATOM
      1 CA         30.6861   -6.8980   -4.4307 C.3       0 UNK        -0.2020 
      2 C          30.0927   -6.3609   -3.1377 C.2       0 UNK         0.4855 
      3 O          29.5887   -7.1362   -2.3246 O.2       0 UNK        -0.5197 
      4 N          30.1397   -5.0380   -2.9473 N.am      1 UNK        -0.4892 
      5 CA         29.5713   -4.3326   -1.7916 C.3       1 UNK         0.0835 
      6 C6         30.2758   -2.9769   -1.5554 C.3       12 UNK        -0.0855 
      7 S7         32.0398   -3.1888   -1.1324 S.3       12 UNK        -0.2931 
      8 C8         32.4990   -1.4960   -0.6456 C.3       12 UNK         0.0378 
      9 C9         32.5423   -0.5675   -1.8487 C.ar      12 UNK        -0.0802 
     10 C10        33.7133   -0.4442   -2.6026 C.ar      12 UNK        -0.0944 
     11 C11        33.7440    0.3794   -3.7320 C.ar      12 UNK        -0.0787 
     12 C12        32.5967    1.0909   -4.0966 C.ar      12 UNK        -0.0862 
     13 C13        31.4224    0.9754   -3.3492 C.ar      12 UNK        -0.0733 
     14 C14        31.4053    0.1561   -2.2183 C.ar      12 UNK        -0.0832 
     15 C15        30.1697    1.7317   -3.7560 C.3       12 UNK         0.0240 
     16 S16        28.9361    0.6163   -4.4954 S.3       12 UNK        -0.2522 
     17 C17        27.5600    1.7799   -4.7538 C.3       12 UNK        -0.0967 
     18 CA         26.9922    1.6994   -6.1912 C.3       5 UNK         0.0660 
     19 N          26.2128    0.4672   -6.3962 N.am      5 UNK        -0.4015 
     20 C          25.4847    0.1414   -7.4793 C.2       4 UNK         0.4946 
     21 O          25.4787    0.7931   -8.5233 O.2       4 UNK        -0.5353 
     22 CA         24.5105   -1.0473   -7.3661 C.3       4 UNK         0.0277 
     23 CB         25.0439   -2.2675   -8.1328 C.3       4 UNK        -0.1981 
     24 N          24.1769   -1.4467   -5.9961 N.am      4 UNK        -0.4209 
     25 C          23.6762   -0.6657   -5.0259 C.2       3 UNK         0.4942 
     26 O          23.3637    0.5148   -5.1944 O.2       3 UNK        -0.5208 
     27 CA         23.5494   -1.2896   -3.6201 C.3       3 UNK         0.0250 
     28 CB         22.0699   -1.4936   -3.2553 C.3       3 UNK        -0.1990 
     29 N          24.2658   -2.5640   -3.4559 N.am      3 UNK        -0.4232 
     30 C          25.5959   -2.7238   -3.5292 C.2       2 UNK         0.4993 
     31 O          26.3858   -1.7976   -3.7238 O.2       2 UNK        -0.5286 
     32 CA         26.0980   -4.1758   -3.4800 C.3       2 UNK         0.0209 
     33 CB         25.8705   -4.8643   -4.8378 C.3       2 UNK        -0.1931 
     34 N          27.5210   -4.2637   -3.1558 N.am      2 UNK        -0.4546 
     35 C          28.0440   -4.1451   -1.9281 C.2       1 UNK         0.5154 
     36 O          27.3683   -3.9297   -0.9201 O.2       1 UNK        -0.5181 
     37 C          26.2240    3.0002   -6.5195 C.2       5 UNK         0.5014 
     38 O          26.8630    3.9881   -6.8840 O.2       5 UNK        -0.5248 
     39 N          24.8856    2.9849   -6.4137 N.am      6 UNK        -0.4434 
     40 CA         24.0035    4.0662   -6.8607 C.3       6 UNK         0.0363 
     41 CB         22.5653    3.7514   -6.4192 C.3       6 UNK        -0.1936 
     42 C          24.0530    4.3270   -8.3817 C.2       6 UNK         0.5081 
     43 O          23.7696    5.4502   -8.7999 O.2       6 UNK        -0.5248 
     44 N          24.4045    3.3059   -9.1760 N.am      7 UNK        -0.4718 
     45 CA         24.5841    3.3883  -10.6247 C.3       7 UNK         0.0273 
     46 CB         23.8991    2.1869  -11.2984 C.3       7 UNK        -0.1935 
     47 C          26.0751    3.4444  -10.9899 C.2       7 UNK         0.5018 
     48 O          26.4697    4.3349  -11.7441 O.2       7 UNK        -0.5186 
     49 N          26.8787    2.5134  -10.4564 N.am      8 UNK        -0.4240 
     50 CA         28.3202    2.4173  -10.6955 C.3       8 UNK         0.0235 
     51 CB         28.5973    1.7876  -12.0741 C.3       8 UNK        -0.2000 
     52 C          28.9624    1.5838   -9.5825 C.2       8 UNK         0.4941 
     53 O          28.3653    0.5956   -9.1588 O.2       8 UNK        -0.5273 
     54 N          30.1608    1.9936   -9.1423 N.am      9 UNK        -0.4262 
     55 CA         30.9349    1.4315   -8.0273 C.3       9 UNK         0.0264 
     56 CB         32.3108    2.1192   -7.9948 C.3       9 UNK        -0.1955 
     57 C          31.0865   -0.1021   -8.0760 C.2       9 UNK         0.5031 
     58 O          31.8260   -0.6183   -8.9170 O.2       9 UNK        -0.5390 
     59 N          30.3802   -0.7943   -7.1750 N.am      10 UNK        -0.4204 
     60 CA         30.3216   -2.2507   -7.0776 C.3       10 UNK         0.0237 
     61 CB         28.8721   -2.6597   -6.7533 C.3       10 UNK        -0.1985 
     62 C          31.3239   -2.7464   -6.0260 C.2       10 UNK         0.4970 
     63 O          30.9199   -3.3109   -5.0086 O.2       10 UNK        -0.4914 
     64 N          32.6149   -2.5076   -6.2823 N.am      11 UNK        -0.4285 
     65 CA         33.7190   -2.8196   -5.3593 C.3       11 UNK         0.1007 
     66 C          33.9917   -4.3356   -5.1328 C.2       11 UNK         0.5703 
     67 N          33.4861   -5.2340   -5.9700 N.am      11 UNK        -0.7361 
     68 O          34.6812   -4.7012   -4.1842 O.2       11 UNK        -0.4986 
     69 C69        35.0360   -2.0870   -5.7395 C.3       12 UNK        -0.0947 
     70 S70        34.8397   -0.3251   -6.1757 S.3       12 UNK        -0.2240 
     71 C71        35.0115    0.5022   -4.5641 C.3       12 UNK         0.0194 
     72 H72        31.6274   -7.4077   -4.2283 H         1 UNK         0.0906 
     73 H73        30.0029   -7.6098   -4.8932 H         1 UNK         0.0906 
     74 H74        30.8758   -6.1006   -5.1486 H         1 UNK         0.0906 
     75 H75        30.5554   -4.4365   -3.6598 H         1 UNK         0.3140 
     76 H76        29.7257   -4.9487   -0.9028 H         1 UNK         0.1085 
     77 H77        29.7943   -2.4296   -0.7424 H         1 UNK         0.0836 
     78 H78        30.1939   -2.3510   -2.4464 H         1 UNK         0.0836 
     79 H79        33.4771   -1.5210   -0.1628 H         1 UNK         0.0731 
     80 H80        31.7993   -1.1236    0.1043 H         1 UNK         0.0731 
     81 H81        34.5931   -1.0069   -2.3216 H         1 UNK         0.1312 
     82 H82        32.6187    1.7304   -4.9665 H         1 UNK         0.1406 
     83 H83        30.4950    0.0632   -1.6416 H         1 UNK         0.1631 
     84 H84        30.4118    2.5251   -4.4651 H         1 UNK         0.0717 
     85 H85        29.7405    2.2177   -2.8784 H         1 UNK         0.0717 
     86 H86        26.7817    1.5749   -4.0159 H         1 UNK         0.0934 
     87 H87        27.9187    2.7880   -4.5332 H         1 UNK         0.0934 
     88 H88        27.8298    1.6646   -6.8857 H         1 UNK         0.0739 
     89 H89        26.1701   -0.1528   -5.5980 H         1 UNK         0.3093 
     90 H90        23.5801   -0.7292   -7.8408 H         1 UNK         0.0818 
     91 H91        25.3462   -1.9945   -9.1452 H         1 UNK         0.0819 
     92 H92        25.9103   -2.7073   -7.6404 H         1 UNK         0.0819 
     93 H93        24.2822   -3.0421   -8.2230 H         1 UNK         0.0819 
     94 H94        24.3942   -2.3997   -5.7484 H         1 UNK         0.3041 
     95 H95        23.9810   -0.5747   -2.9164 H         1 UNK         0.0784 
     96 H96        21.5154   -0.5571   -3.3328 H         1 UNK         0.0793 
     97 H97        21.5860   -2.2138   -3.9163 H         1 UNK         0.0793 
     98 H98        21.9581   -1.8481   -2.2304 H         1 UNK         0.0793 
     99 H99        23.6885   -3.3803   -3.3084 H         1 UNK         0.3024 
    100 H100       25.5347   -4.7103   -2.7111 H         1 UNK         0.1171 
    101 H101       26.2101   -5.9002   -4.8171 H         1 UNK         0.0786 
    102 H102       24.8129   -4.8821   -5.1038 H         1 UNK         0.0786 
    103 H103       26.4023   -4.3557   -5.6430 H         1 UNK         0.0786 
    104 H104       28.1605   -4.3988   -3.9247 H         1 UNK         0.2977 
    105 H105       24.4321    2.1409   -6.0781 H         1 UNK         0.3127 
    106 H106       24.3230    4.9836   -6.3619 H         1 UNK         0.0770 
    107 H107       22.2001    2.8268   -6.8685 H         1 UNK         0.0814 
    108 H108       21.8822    4.5499   -6.7120 H         1 UNK         0.0814 
    109 H109       22.4960    3.6465   -5.3363 H         1 UNK         0.0814 
    110 H110       24.6718    2.4199   -8.7516 H         1 UNK         0.2983 
    111 H111       24.1146    4.2962  -11.0103 H         1 UNK         0.0947 
    112 H112       24.3119    1.2363  -10.9586 H         1 UNK         0.0806 
    113 H113       24.0206    2.2266  -12.3817 H         1 UNK         0.0806 
    114 H114       22.8288    2.1775  -11.0925 H         1 UNK         0.0806 
    115 H115       26.4976    1.8159   -9.8173 H         1 UNK         0.3000 
    116 H116       28.7451    3.4232  -10.6666 H         1 UNK         0.0850 
    117 H117       29.6689    1.6832  -12.2487 H         1 UNK         0.0810 
    118 H118       28.1973    2.3995  -12.8826 H         1 UNK         0.0810 
    119 H119       28.1544    0.7941  -12.1551 H         1 UNK         0.0810 
    120 H120       30.5759    2.7955   -9.5941 H         1 UNK         0.3040 
    121 H121       30.4104    1.6953   -7.1071 H         1 UNK         0.0766 
    122 H122       32.2197    3.1870   -7.7952 H         1 UNK         0.0812 
    123 H123       32.8437    1.9967   -8.9386 H         1 UNK         0.0812 
    124 H124       32.9448    1.6982   -7.2162 H         1 UNK         0.0812 
    125 H125       29.8282   -0.2896   -6.4932 H         1 UNK         0.3205 
    126 H126       30.5907   -2.7030   -8.0344 H         1 UNK         0.0754 
    127 H127       28.7703   -3.7447   -6.7116 H         1 UNK         0.0769 
    128 H128       28.1905   -2.2957   -7.5214 H         1 UNK         0.0769 
    129 H129       28.5381   -2.2599   -5.7942 H         1 UNK         0.0769 
    130 H130       32.8645   -2.0192   -7.1311 H         1 UNK         0.2981 
    131 H131       33.4075   -2.4433   -4.3852 H         1 UNK         0.0541 
    132 H132       33.6812   -6.2108   -5.8205 H         1 UNK         0.3459 
    133 H133       32.9354   -4.9422   -6.7605 H         1 UNK         0.3459 
    134 H134       35.7634   -2.1688   -4.9299 H         1 UNK         0.0612 
    135 H135       35.4940   -2.5731   -6.6029 H         1 UNK         0.0612 
    136 H136       35.2228    1.5586   -4.7355 H         1 UNK         0.0624 
    137 H137       35.8752    0.1002   -4.0325 H         1 UNK         0.0624 
@<TRIPOS>BOND
     1    1    2 1    
     2    1   72 1    
     3    1   73 1    
     4    1   74 1    
     5    2    3 2    
     6    2    4 am   BACKBONE|DICT|INTERRES
     7    4    5 1    
     8    4   75 1    
     9    5    6 1    
    10    5   35 1    
    11    5   76 1    
    12    6    7 1    
    13    6   77 1    
    14    6   78 1    
    15    7    8 1    
    16    8    9 1    
    17    8   79 1    
    18    8   80 1    
    19    9   10 ar   
    20    9   14 ar   
    21   10   11 ar   
    22   10   81 1    
    23   11   12 ar   
    24   11   71 1    
    25   12   13 ar   
    26   12   82 1    
    27   13   14 ar   
    28   13   15 1    
    29   14   83 1    
    30   15   16 1    
    31   15   84 1    
    32   15   85 1    
    33   16   17 1    
    34   17   18 1    
    35   17   86 1    
    36   17   87 1    
    37   18   19 1    
    38   18   37 1    
    39   18   88 1    
    40   19   20 am   BACKBONE|DICT|INTERRES
    41   19   89 1    
    42   20   21 2    
    43   20   22 1    
    44   22   23 1    
    45   22   24 1    
    46   22   90 1    
    47   23   91 1    
    48   23   92 1    
    49   23   93 1    
    50   24   25 am   BACKBONE|DICT|INTERRES
    51   24   94 1    
    52   25   26 2    
    53   25   27 1    
    54   27   28 1    
    55   27   29 1    
    56   27   95 1    
    57   28   96 1    
    58   28   97 1    
    59   28   98 1    
    60   29   30 am   BACKBONE|DICT|INTERRES
    61   29   99 1    
    62   30   31 2    
    63   30   32 1    
    64   32   33 1    
    65   32   34 1    
    66   32  100 1    
    67   33  101 1    
    68   33  102 1    
    69   33  103 1    
    70   34   35 am   BACKBONE|DICT|INTERRES
    71   34  104 1    
    72   35   36 2    
    73   37   38 2    
    74   37   39 am   BACKBONE|DICT|INTERRES
    75   39   40 1    
    76   39  105 1    
    77   40   41 1    
    78   40   42 1    
    79   40  106 1    
    80   41  107 1    
    81   41  108 1    
    82   41  109 1    
    83   42   43 2    
    84   42   44 am   BACKBONE|DICT|INTERRES
    85   44   45 1    
    86   44  110 1    
    87   45   46 1    
    88   45   47 1    
    89   45  111 1    
    90   46  112 1    
    91   46  113 1    
    92   46  114 1    
    93   47   48 2    
    94   47   49 am   BACKBONE|DICT|INTERRES
    95   49   50 1    
    96   49  115 1    
    97   50   51 1    
    98   50   52 1    
    99   50  116 1    
   100   51  117 1    
   101   51  118 1    
   102   51  119 1    
   103   52   53 2    
   104   52   54 am   BACKBONE|DICT|INTERRES
   105   54   55 1    
   106   54  120 1    
   107   55   56 1    
   108   55   57 1    
   109   55  121 1    
   110   56  122 1    
   111   56  123 1    
   112   56  124 1    
   113   57   58 2    
   114   57   59 am   BACKBONE|DICT|INTERRES
   115   59   60 1    
   116   59  125 1    
   117   60   61 1    
   118   60   62 1    
   119   60  126 1    
   120   61  127 1    
   121   61  128 1    
   122   61  129 1    
   123   62   63 2    
   124   62   64 am   BACKBONE|DICT|INTERRES
   125   64   65 1    
   126   64  130 1    
   127   65   66 1    
   128   65   69 1    
   129   65  131 1    
   130   66   67 am   BACKBONE|DICT|INTERRES
   131   66   68 2    
   132   67  132 1    
   133   67  133 1    
   134   69   70 1    
   135   69  134 1    
   136   69  135 1    
   137   70   71 1    
   138   71  136 1    
   139   71  137 1    
@<TRIPOS>SUBSTRUCTURE
     1 UNK         1 GROUP             0       ****    0 ROOT    
