@<TRIPOS>MOLECULE
3R137
137   139    1
SMALL
USER_CHARGES


@<TRIPOS>ATOM
      1 CA         22.8691   -4.9819   -1.5970 C.3       0 UNK        -0.2020 
      2 C          24.2929   -4.5353   -1.3026 C.2       0 UNK         0.4855 
      3 O          24.5634   -4.0236   -0.2156 O.2       0 UNK        -0.5197 
      4 N          25.2069   -4.7096   -2.2664 N.am      1 UNK        -0.4892 
      5 CA         26.6201   -4.3211   -2.1853 C.3       1 UNK         0.0835 
      6 C6         27.4689   -5.1645   -3.1726 C.3       12 UNK        -0.0855 
      7 S7         29.2566   -5.0964   -2.8121 S.3       12 UNK        -0.2931 
      8 C8         29.9131   -4.2996   -4.3135 C.3       12 UNK         0.0378 
      9 C9         31.0249   -3.3289   -3.9593 C.ar      12 UNK        -0.0802 
     10 C10        32.3631   -3.7219   -4.0091 C.ar      12 UNK        -0.0944 
     11 C11        33.3772   -2.8283   -3.6506 C.ar      12 UNK        -0.0787 
     12 C12        33.0428   -1.5261   -3.2578 C.ar      12 UNK        -0.0862 
     13 C13        31.7015   -1.1271   -3.1893 C.ar      12 UNK        -0.0733 
     14 C14        30.7027   -2.0365   -3.5460 C.ar      12 UNK        -0.0832 
     15 C15        31.3279    0.2493   -2.6481 C.3       12 UNK         0.0240 
     16 S16        30.7010    1.3835   -3.9298 S.3       12 UNK        -0.2522 
     17 C17        28.9109    1.0279   -3.9542 C.3       12 UNK        -0.0967 
     18 CA         28.3513    0.8987   -5.3993 C.3       5 UNK         0.0660 
     19 N          27.4344   -0.2388   -5.5514 N.am      5 UNK        -0.4015 
     20 C          26.8501   -0.6071   -6.7028 C.2       4 UNK         0.4946 
     21 O          27.0791   -0.0785   -7.7895 O.2       4 UNK        -0.5353 
     22 CA         25.7745   -1.7004   -6.6217 C.3       4 UNK         0.0277 
     23 CB         26.4008   -3.1019   -6.6651 C.3       4 UNK        -0.1981 
     24 N          24.9469   -1.5485   -5.4230 N.am      4 UNK        -0.4209 
     25 C          24.0301   -0.5810   -5.2664 C.2       3 UNK         0.4942 
     26 O          23.7381    0.2303   -6.1435 O.2       3 UNK        -0.5208 
     27 CA         23.3520   -0.4720   -3.8893 C.3       3 UNK         0.0250 
     28 CB         22.1481   -1.4238   -3.8031 C.3       3 UNK        -0.1990 
     29 N          24.2656   -0.7407   -2.7769 N.am      3 UNK        -0.4232 
     30 C          25.3501   -0.0106   -2.4782 C.2       2 UNK         0.4993 
     31 O          25.6736    1.0159   -3.0747 O.2       2 UNK        -0.5286 
     32 CA         26.2649   -0.5618   -1.3710 C.3       2 UNK         0.0209 
     33 CB         25.8075   -0.0591    0.0068 C.3       2 UNK        -0.1931 
     34 N          26.3356   -2.0280   -1.3598 N.am      2 UNK        -0.4546 
     35 C          26.7586   -2.7929   -2.3763 C.2       1 UNK         0.5154 
     36 O          27.1542   -2.3249   -3.4465 O.2       1 UNK        -0.5181 
     37 C          27.6990    2.2190   -5.8652 C.2       5 UNK         0.5014 
     38 O          28.2766    2.9312   -6.6875 O.2       5 UNK        -0.5248 
     39 N          26.4789    2.4861   -5.3734 N.am      6 UNK        -0.4434 
     40 CA         25.6431    3.6312   -5.7494 C.3       6 UNK         0.0363 
     41 CB         24.3974    3.6671   -4.8505 C.3       6 UNK        -0.1936 
     42 C          25.2368    3.6423   -7.2352 C.2       6 UNK         0.5081 
     43 O          25.1179    4.7191   -7.8193 O.2       6 UNK        -0.5248 
     44 N          25.0678    2.4539   -7.8305 N.am      7 UNK        -0.4718 
     45 CA         24.8150    2.2518   -9.2614 C.3       7 UNK         0.0273 
     46 CB         24.1077    0.8999   -9.4578 C.3       7 UNK        -0.1935 
     47 C          26.0855    2.3403  -10.1340 C.2       7 UNK         0.5018 
     48 O          25.9850    2.1413  -11.3455 O.2       7 UNK        -0.5186 
     49 N          27.2441    2.6284   -9.5209 N.am      8 UNK        -0.4240 
     50 CA         28.5759    2.7623  -10.1206 C.3       8 UNK         0.0235 
     51 CB         28.6098    3.8582  -11.2082 C.3       8 UNK        -0.2000 
     52 C          29.1938    1.4306  -10.5874 C.2       8 UNK         0.4941 
     53 O          30.1368    1.4499  -11.3797 O.2       8 UNK        -0.5273 
     54 N          28.7236    0.3017  -10.0404 N.am      9 UNK        -0.4262 
     55 CA         29.3352   -1.0226  -10.1751 C.3       9 UNK         0.0264 
     56 CB         28.2277   -2.0724  -10.3796 C.3       9 UNK        -0.1955 
     57 C          30.2155   -1.3003   -8.9409 C.2       9 UNK         0.5031 
     58 O          30.0915   -2.3466   -8.3017 O.2       9 UNK        -0.5390 
     59 N          31.0694   -0.3236   -8.6171 N.am      10 UNK        -0.4204 
     60 CA         32.0039   -0.3260   -7.4960 C.3       10 UNK         0.0237 
     61 CB         32.2231    1.1376   -7.0721 C.3       10 UNK        -0.1985 
     62 C          33.3462   -0.9547   -7.8989 C.2       10 UNK         0.4970 
     63 O          33.6112   -1.1444   -9.0891 O.2       10 UNK        -0.4914 
     64 N          34.1990   -1.1985   -6.8974 N.am      11 UNK        -0.4285 
     65 CA         35.6072   -1.5870   -7.0850 C.3       11 UNK         0.1007 
     66 C          36.5152   -0.4674   -7.6778 C.2       11 UNK         0.5703 
     67 N          36.1114    0.7981   -7.6678 N.am      11 UNK        -0.7361 
     68 O          37.6071   -0.7569   -8.1614 O.2       11 UNK        -0.4986 
     69 C69        36.2246   -2.1430   -5.7776 C.3       12 UNK        -0.0947 
     70 S70        35.4680   -3.7171   -5.2601 S.3       12 UNK        -0.2240 
     71 C71        34.8198   -3.3123   -3.6084 C.3       12 UNK         0.0194 
     72 H72        22.1848   -4.1385   -1.5078 H         1 UNK         0.0906 
     73 H73        22.7688   -5.3952   -2.6004 H         1 UNK         0.0906 
     74 H74        22.5618   -5.7460   -0.8835 H         1 UNK         0.0906 
     75 H75        24.9215   -5.1270   -3.1414 H         1 UNK         0.3140 
     76 H76        26.9731   -4.5503   -1.1767 H         1 UNK         0.1085 
     77 H77        27.2627   -4.8950   -4.2085 H         1 UNK         0.0836 
     78 H78        27.1832   -6.2144   -3.0883 H         1 UNK         0.0836 
     79 H79        29.1291   -3.7550   -4.8389 H         1 UNK         0.0731 
     80 H80        30.2712   -5.0644   -5.0043 H         1 UNK         0.0731 
     81 H81        32.6163   -4.7319   -4.3016 H         1 UNK         0.1312 
     82 H82        33.8232   -0.8398   -2.9579 H         1 UNK         0.1406 
     83 H83        29.6627   -1.7642   -3.4763 H         1 UNK         0.1631 
     84 H84        32.1995    0.7152   -2.1861 H         1 UNK         0.0717 
     85 H85        30.5908    0.1461   -1.8504 H         1 UNK         0.0717 
     86 H86        28.7213    0.1201   -3.3887 H         1 UNK         0.0934 
     87 H87        28.4021    1.8061   -3.3807 H         1 UNK         0.0934 
     88 H88        29.1764    0.6901   -6.0836 H         1 UNK         0.0739 
     89 H89        27.2149   -0.7715   -4.7164 H         1 UNK         0.3093 
     90 H90        25.1274   -1.5994   -7.4953 H         1 UNK         0.0818 
     91 H91        25.6422   -3.8816   -6.5976 H         1 UNK         0.0819 
     92 H92        26.9440   -3.2581   -7.5971 H         1 UNK         0.0819 
     93 H93        27.1124   -3.2506   -5.8568 H         1 UNK         0.0819 
     94 H94        25.1759   -2.1381   -4.6356 H         1 UNK         0.3041 
     95 H95        22.9893    0.5525   -3.7809 H         1 UNK         0.0784 
     96 H96        21.4398   -1.2287   -4.6097 H         1 UNK         0.0793 
     97 H97        22.4496   -2.4693   -3.8803 H         1 UNK         0.0793 
     98 H98        21.6086   -1.2978   -2.8641 H         1 UNK         0.0793 
     99 H99        24.0807   -1.5614   -2.2196 H         1 UNK         0.3024 
    100 H100       27.2706   -0.1812   -1.5553 H         1 UNK         0.1171 
    101 H101       26.5003   -0.3660    0.7905 H         1 UNK         0.0786 
    102 H102       25.7589    1.0308    0.0283 H         1 UNK         0.0786 
    103 H103       24.8176   -0.4358    0.2677 H         1 UNK         0.0786 
    104 H104       25.9358   -2.5032   -0.5570 H         1 UNK         0.2977 
    105 H105       26.1024    1.8678   -4.6557 H         1 UNK         0.3127 
    106 H106       26.2257    4.5358   -5.5632 H         1 UNK         0.0770 
    107 H107       23.7818    2.7764   -4.9811 H         1 UNK         0.0814 
    108 H108       23.7740    4.5321   -5.0804 H         1 UNK         0.0814 
    109 H109       24.6695    3.7333   -3.7969 H         1 UNK         0.0814 
    110 H110       25.1403    1.6161   -7.2654 H         1 UNK         0.2983 
    111 H111       24.1393    3.0373   -9.6065 H         1 UNK         0.0947 
    112 H112       24.7560    0.0653   -9.1928 H         1 UNK         0.0806 
    113 H113       23.8089    0.7605  -10.4975 H         1 UNK         0.0806 
    114 H114       23.2047    0.8305   -8.8510 H         1 UNK         0.0806 
    115 H115       27.2263    2.7306   -8.5117 H         1 UNK         0.3000 
    116 H116       29.2183    3.1038   -9.3076 H         1 UNK         0.0850 
    117 H117       29.6350    4.0798  -11.5072 H         1 UNK         0.0810 
    118 H118       28.1714    4.7890  -10.8482 H         1 UNK         0.0810 
    119 H119       28.0715    3.5571  -12.1071 H         1 UNK         0.0810 
    120 H120       27.9975    0.3661   -9.3270 H         1 UNK         0.3040 
    121 H121       29.9877   -1.0552  -11.0500 H         1 UNK         0.0766 
    122 H122       28.6482   -3.0739  -10.4782 H         1 UNK         0.0812 
    123 H123       27.6562   -1.8695  -11.2852 H         1 UNK         0.0812 
    124 H124       27.5293   -2.0893   -9.5440 H         1 UNK         0.0812 
    125 H125       31.1425    0.4573   -9.2536 H         1 UNK         0.3205 
    126 H126       31.5769   -0.8881   -6.6617 H         1 UNK         0.0754 
    127 H127       32.8217    1.2010   -6.1627 H         1 UNK         0.0769 
    128 H128       31.2774    1.6403   -6.8690 H         1 UNK         0.0769 
    129 H129       32.7383    1.7112   -7.8441 H         1 UNK         0.0769 
    130 H130       33.9058   -1.0372   -5.9455 H         1 UNK         0.2981 
    131 H131       35.6217   -2.3924   -7.8220 H         1 UNK         0.0541 
    132 H132       36.7106    1.5078   -8.0590 H         1 UNK         0.3459 
    133 H133       35.2232    1.0517   -7.2688 H         1 UNK         0.3459 
    134 H134       37.2904   -2.3413   -5.9068 H         1 UNK         0.0612 
    135 H135       36.1511   -1.4030   -4.9790 H         1 UNK         0.0612 
    136 H136       34.8619   -4.2149   -2.9971 H         1 UNK         0.0624 
    137 H137       35.4688   -2.5887   -3.1133 H         1 UNK         0.0624 
@<TRIPOS>BOND
     1    1    2 1    
     2    1   72 1    
     3    1   73 1    
     4    1   74 1    
     5    2    3 2    
     6    2    4 am   BACKBONE|DICT|INTERRES
     7    4    5 1    
     8    4   75 1    
     9    5    6 1    
    10    5   35 1    
    11    5   76 1    
    12    6    7 1    
    13    6   77 1    
    14    6   78 1    
    15    7    8 1    
    16    8    9 1    
    17    8   79 1    
    18    8   80 1    
    19    9   10 ar   
    20    9   14 ar   
    21   10   11 ar   
    22   10   81 1    
    23   11   12 ar   
    24   11   71 1    
    25   12   13 ar   
    26   12   82 1    
    27   13   14 ar   
    28   13   15 1    
    29   14   83 1    
    30   15   16 1    
    31   15   84 1    
    32   15   85 1    
    33   16   17 1    
    34   17   18 1    
    35   17   86 1    
    36   17   87 1    
    37   18   19 1    
    38   18   37 1    
    39   18   88 1    
    40   19   20 am   BACKBONE|DICT|INTERRES
    41   19   89 1    
    42   20   21 2    
    43   20   22 1    
    44   22   23 1    
    45   22   24 1    
    46   22   90 1    
    47   23   91 1    
    48   23   92 1    
    49   23   93 1    
    50   24   25 am   BACKBONE|DICT|INTERRES
    51   24   94 1    
    52   25   26 2    
    53   25   27 1    
    54   27   28 1    
    55   27   29 1    
    56   27   95 1    
    57   28   96 1    
    58   28   97 1    
    59   28   98 1    
    60   29   30 am   BACKBONE|DICT|INTERRES
    61   29   99 1    
    62   30   31 2    
    63   30   32 1    
    64   32   33 1    
    65   32   34 1    
    66   32  100 1    
    67   33  101 1    
    68   33  102 1    
    69   33  103 1    
    70   34   35 am   BACKBONE|DICT|INTERRES
    71   34  104 1    
    72   35   36 2    
    73   37   38 2    
    74   37   39 am   BACKBONE|DICT|INTERRES
    75   39   40 1    
    76   39  105 1    
    77   40   41 1    
    78   40   42 1    
    79   40  106 1    
    80   41  107 1    
    81   41  108 1    
    82   41  109 1    
    83   42   43 2    
    84   42   44 am   BACKBONE|DICT|INTERRES
    85   44   45 1    
    86   44  110 1    
    87   45   46 1    
    88   45   47 1    
    89   45  111 1    
    90   46  112 1    
    91   46  113 1    
    92   46  114 1    
    93   47   48 2    
    94   47   49 am   BACKBONE|DICT|INTERRES
    95   49   50 1    
    96   49  115 1    
    97   50   51 1    
    98   50   52 1    
    99   50  116 1    
   100   51  117 1    
   101   51  118 1    
   102   51  119 1    
   103   52   53 2    
   104   52   54 am   BACKBONE|DICT|INTERRES
   105   54   55 1    
   106   54  120 1    
   107   55   56 1    
   108   55   57 1    
   109   55  121 1    
   110   56  122 1    
   111   56  123 1    
   112   56  124 1    
   113   57   58 2    
   114   57   59 am   BACKBONE|DICT|INTERRES
   115   59   60 1    
   116   59  125 1    
   117   60   61 1    
   118   60   62 1    
   119   60  126 1    
   120   61  127 1    
   121   61  128 1    
   122   61  129 1    
   123   62   63 2    
   124   62   64 am   BACKBONE|DICT|INTERRES
   125   64   65 1    
   126   64  130 1    
   127   65   66 1    
   128   65   69 1    
   129   65  131 1    
   130   66   67 am   BACKBONE|DICT|INTERRES
   131   66   68 2    
   132   67  132 1    
   133   67  133 1    
   134   69   70 1    
   135   69  134 1    
   136   69  135 1    
   137   70   71 1    
   138   71  136 1    
   139   71  137 1    
@<TRIPOS>SUBSTRUCTURE
     1 UNK         1 GROUP             0       ****    0 ROOT    
