@<TRIPOS>MOLECULE
3R137
137   139    1
SMALL
USER_CHARGES


@<TRIPOS>ATOM
      1 CA         30.0202   -1.4571    3.2677 C.3       0 UNK        -0.2020 
      2 C          29.5585   -1.1310    1.8551 C.2       0 UNK         0.4855 
      3 O          29.1640    0.0045    1.5864 O.2       0 UNK        -0.5197 
      4 N          29.6130   -2.1142    0.9491 N.am      1 UNK        -0.4892 
      5 CA         29.1368   -2.0082   -0.4335 C.3       1 UNK         0.0835 
      6 C6         29.8203   -3.0564   -1.3481 C.3       12 UNK        -0.0855 
      7 S7         29.5671   -4.7969   -0.8414 S.3       12 UNK        -0.2931 
      8 C8         30.8968   -5.6433   -1.7610 C.3       12 UNK         0.0378 
      9 C9         30.8891   -5.2847   -3.2412 C.ar      12 UNK        -0.0802 
     10 C10        31.9647   -4.5890   -3.8023 C.ar      12 UNK        -0.0944 
     11 C11        31.9369   -4.2052   -5.1460 C.ar      12 UNK        -0.0787 
     12 C12        30.8259   -4.5243   -5.9312 C.ar      12 UNK        -0.0862 
     13 C13        29.7401   -5.2105   -5.3781 C.ar      12 UNK        -0.0733 
     14 C14        29.7873   -5.6081   -4.0390 C.ar      12 UNK        -0.0832 
     15 C15        28.4954   -5.4801   -6.2125 C.3       12 UNK         0.0240 
     16 S16        27.0724   -4.4917   -5.6411 S.3       12 UNK        -0.2522 
     17 C17        27.6663   -2.7831   -5.8882 C.3       12 UNK        -0.0967 
     18 CA         26.8500   -2.0301   -6.9623 C.3       5 UNK         0.0660 
     19 N          25.4497   -1.8411   -6.5857 N.am      5 UNK        -0.4015 
     20 C          24.4718   -1.5122   -7.4411 C.2       4 UNK         0.4946 
     21 O          24.6258   -1.4119   -8.6586 O.2       4 UNK        -0.5353 
     22 CA         23.0913   -1.2169   -6.8300 C.3       4 UNK         0.0277 
     23 CB         22.2730   -2.5110   -6.6936 C.3       4 UNK        -0.1981 
     24 N          23.1735   -0.5482   -5.5277 N.am      4 UNK        -0.4209 
     25 C          23.6695    0.6835   -5.3383 C.2       3 UNK         0.4942 
     26 O          24.0806    1.4042   -6.2460 O.2       3 UNK        -0.5208 
     27 CA         23.7683    1.1744   -3.8850 C.3       3 UNK         0.0250 
     28 CB         22.4346    1.7875   -3.4290 C.3       3 UNK        -0.1990 
     29 N          24.1811    0.1284   -2.9425 N.am      3 UNK        -0.4232 
     30 C          25.3574   -0.5116   -2.9856 C.2       2 UNK         0.4993 
     31 O          26.2153   -0.3233   -3.8533 O.2       2 UNK        -0.5286 
     32 CA         25.6031   -1.5708   -1.9096 C.3       2 UNK         0.0209 
     33 CB         25.0905   -2.9467   -2.3735 C.3       2 UNK        -0.1931 
     34 N          27.0378   -1.6315   -1.6455 N.am      2 UNK        -0.4546 
     35 C          27.5939   -2.0735   -0.5123 C.2       1 UNK         0.5154 
     36 O          26.9384   -2.5233    0.4334 O.2       1 UNK        -0.5181 
     37 C          27.4979   -0.6774   -7.2991 C.2       5 UNK         0.5014 
     38 O          28.0827   -0.5502   -8.3732 O.2       5 UNK        -0.5248 
     39 N          27.3422    0.3152   -6.4086 N.am      6 UNK        -0.4434 
     40 CA         27.8723    1.6747   -6.5652 C.3       6 UNK         0.0363 
     41 CB         27.5531    2.4984   -5.3085 C.3       6 UNK        -0.1936 
     42 C          27.3702    2.3976   -7.8283 C.2       6 UNK         0.5081 
     43 O          28.1333    3.1433   -8.4417 O.2       6 UNK        -0.5248 
     44 N          26.1111    2.1437   -8.2110 N.am      7 UNK        -0.4718 
     45 CA         25.5054    2.6207   -9.4557 C.3       7 UNK         0.0273 
     46 CB         23.9905    2.3648   -9.4125 C.3       7 UNK        -0.1935 
     47 C          26.1185    1.9908  -10.7203 C.2       7 UNK         0.5018 
     48 O          26.1154    2.6403  -11.7671 O.2       7 UNK        -0.5186 
     49 N          26.6242    0.7533  -10.6146 N.am      8 UNK        -0.4240 
     50 CA         27.3138    0.0521  -11.6979 C.3       8 UNK         0.0235 
     51 CB         27.1789   -1.4693  -11.5150 C.3       8 UNK        -0.2000 
     52 C          28.7872    0.4778  -11.7848 C.2       8 UNK         0.4941 
     53 O          29.2551    0.7950  -12.8796 O.2       8 UNK        -0.5273 
     54 N          29.4847    0.5015  -10.6417 N.am      9 UNK        -0.4262 
     55 CA         30.8672    0.9549  -10.5170 C.3       9 UNK         0.0264 
     56 CB         31.8421   -0.1522  -10.9610 C.3       9 UNK        -0.1955 
     57 C          31.1268    1.3592   -9.0638 C.2       9 UNK         0.5031 
     58 O          30.9219    0.5451   -8.1619 O.2       9 UNK        -0.5390 
     59 N          31.6116    2.5887   -8.8535 N.am      10 UNK        -0.4204 
     60 CA         31.9472    3.1454   -7.5397 C.3       10 UNK         0.0237 
     61 CB         31.9143    4.6829   -7.6253 C.3       10 UNK        -0.1985 
     62 C          33.2934    2.6043   -7.0171 C.2       10 UNK         0.4970 
     63 O          34.2530    3.3645   -6.8722 O.2       10 UNK        -0.4914 
     64 N          33.3432    1.2901   -6.7778 N.am      11 UNK        -0.4285 
     65 CA         34.4864    0.5591   -6.2170 C.3       11 UNK         0.1007 
     66 C          34.8431    0.9686   -4.7582 C.2       11 UNK         0.5703 
     67 N          36.0729    0.7142   -4.3303 N.am      11 UNK        -0.7361 
     68 O          34.0200    1.4887   -4.0060 O.2       11 UNK        -0.4986 
     69 C69        34.3021   -0.9746   -6.3757 C.3       12 UNK        -0.0947 
     70 S70        32.7964   -1.6304   -5.5796 S.3       12 UNK        -0.2240 
     71 C71        33.0910   -3.4158   -5.7414 C.3       12 UNK         0.0194 
     72 H72        29.2043   -1.3033    3.9735 H         1 UNK         0.0906 
     73 H73        30.3570   -2.4897    3.3588 H         1 UNK         0.0906 
     74 H74        30.8455   -0.8052    3.5531 H         1 UNK         0.0906 
     75 H75        29.9026   -3.0412    1.2284 H         1 UNK         0.3140 
     76 H76        29.4240   -1.0209   -0.8035 H         1 UNK         0.1085 
     77 H77        29.4812   -2.9424   -2.3799 H         1 UNK         0.0836 
     78 H78        30.8936   -2.8600   -1.3725 H         1 UNK         0.0836 
     79 H79        31.8557   -5.3916   -1.3051 H         1 UNK         0.0731 
     80 H80        30.7770   -6.7219   -1.6503 H         1 UNK         0.0731 
     81 H81        32.8151   -4.3234   -3.1890 H         1 UNK         0.1312 
     82 H82        30.7946   -4.2067   -6.9647 H         1 UNK         0.1406 
     83 H83        28.9429   -6.1253   -3.6030 H         1 UNK         0.1631 
     84 H84        28.6770   -5.2688   -7.2675 H         1 UNK         0.0717 
     85 H85        28.2409   -6.5389   -6.1494 H         1 UNK         0.0717 
     86 H86        27.6274   -2.2674   -4.9279 H         1 UNK         0.0934 
     87 H87        28.7194   -2.7981   -6.1699 H         1 UNK         0.0934 
     88 H88        26.8717   -2.6302   -7.8753 H         1 UNK         0.0739 
     89 H89        25.2432   -1.8763   -5.5991 H         1 UNK         0.3093 
     90 H90        22.5653   -0.5488   -7.5157 H         1 UNK         0.0818 
     91 H91        21.2623   -2.3066   -6.3396 H         1 UNK         0.0819 
     92 H92        22.1806   -3.0156   -7.6565 H         1 UNK         0.0819 
     93 H93        22.7371   -3.2143   -6.0009 H         1 UNK         0.0819 
     94 H94        22.8478   -1.0643   -4.7236 H         1 UNK         0.3041 
     95 H95        24.5273    1.9587   -3.8568 H         1 UNK         0.0784 
     96 H96        22.1185    2.5809   -4.1081 H         1 UNK         0.0793 
     97 H97        21.6350    1.0463   -3.3993 H         1 UNK         0.0793 
     98 H98        22.5200    2.2301   -2.4363 H         1 UNK         0.0793 
     99 H99        23.5293   -0.0947   -2.2034 H         1 UNK         0.3024 
    100 H100       25.0824   -1.2714   -0.9968 H         1 UNK         0.1171 
    101 H101       25.2399   -3.7058   -1.6054 H         1 UNK         0.0786 
    102 H102       24.0227   -2.9176   -2.5934 H         1 UNK         0.0786 
    103 H103       25.6030   -3.2834   -3.2750 H         1 UNK         0.0786 
    104 H104       27.6095   -1.2364   -2.3820 H         1 UNK         0.2977 
    105 H105       26.8550    0.1178   -5.5360 H         1 UNK         0.3127 
    106 H106       28.9569    1.5883   -6.6478 H         1 UNK         0.0770 
    107 H107       26.4783    2.6167   -5.1700 H         1 UNK         0.0814 
    108 H108       27.9860    3.4972   -5.3772 H         1 UNK         0.0814 
    109 H109       27.9576    2.0291   -4.4115 H         1 UNK         0.0814 
    110 H110       25.5167    1.5968   -7.5940 H         1 UNK         0.2983 
    111 H111       25.6695    3.6988   -9.5164 H         1 UNK         0.0947 
    112 H112       23.5063    2.7189  -10.3236 H         1 UNK         0.0806 
    113 H113       23.5246    2.8848   -8.5752 H         1 UNK         0.0806 
    114 H114       23.7653    1.3020   -9.3129 H         1 UNK         0.0806 
    115 H115       26.6348    0.3056   -9.7057 H         1 UNK         0.3000 
    116 H116       26.8345    0.3116  -12.6446 H         1 UNK         0.0850 
    117 H117       27.6310   -2.0012  -12.3530 H         1 UNK         0.0810 
    118 H118       26.1320   -1.7699  -11.4653 H         1 UNK         0.0810 
    119 H119       27.6683   -1.8211  -10.6071 H         1 UNK         0.0810 
    120 H120       29.0377    0.2098   -9.7708 H         1 UNK         0.3040 
    121 H121       31.0095    1.8290  -11.1562 H         1 UNK         0.0766 
    122 H122       31.7048   -0.4087  -12.0115 H         1 UNK         0.0812 
    123 H123       31.7083   -1.0619  -10.3739 H         1 UNK         0.0812 
    124 H124       32.8778    0.1669  -10.8382 H         1 UNK         0.0812 
    125 H125       31.7859    3.1856   -9.6494 H         1 UNK         0.3205 
    126 H126       31.1790    2.8421   -6.8248 H         1 UNK         0.0754 
    127 H127       32.1353    5.1327   -6.6563 H         1 UNK         0.0769 
    128 H128       30.9294    5.0396   -7.9283 H         1 UNK         0.0769 
    129 H129       32.6453    5.0662   -8.3383 H         1 UNK         0.0769 
    130 H130       32.5066    0.7432   -6.9581 H         1 UNK         0.2981 
    131 H131       35.3470    0.8401   -6.8273 H         1 UNK         0.0541 
    132 H132       36.7569    0.2823   -4.9318 H         1 UNK         0.3459 
    133 H133       36.3227    0.9625   -3.3858 H         1 UNK         0.3459 
    134 H134       35.1711   -1.5066   -5.9844 H         1 UNK         0.0612 
    135 H135       34.2537   -1.2260   -7.4364 H         1 UNK         0.0612 
    136 H136       34.0253   -3.6778   -5.2424 H         1 UNK         0.0624 
    137 H137       33.2172   -3.6691   -6.7953 H         1 UNK         0.0624 
@<TRIPOS>BOND
     1    1    2 1    
     2    1   72 1    
     3    1   73 1    
     4    1   74 1    
     5    2    3 2    
     6    2    4 am   BACKBONE|DICT|INTERRES
     7    4    5 1    
     8    4   75 1    
     9    5    6 1    
    10    5   35 1    
    11    5   76 1    
    12    6    7 1    
    13    6   77 1    
    14    6   78 1    
    15    7    8 1    
    16    8    9 1    
    17    8   79 1    
    18    8   80 1    
    19    9   10 ar   
    20    9   14 ar   
    21   10   11 ar   
    22   10   81 1    
    23   11   12 ar   
    24   11   71 1    
    25   12   13 ar   
    26   12   82 1    
    27   13   14 ar   
    28   13   15 1    
    29   14   83 1    
    30   15   16 1    
    31   15   84 1    
    32   15   85 1    
    33   16   17 1    
    34   17   18 1    
    35   17   86 1    
    36   17   87 1    
    37   18   19 1    
    38   18   37 1    
    39   18   88 1    
    40   19   20 am   BACKBONE|DICT|INTERRES
    41   19   89 1    
    42   20   21 2    
    43   20   22 1    
    44   22   23 1    
    45   22   24 1    
    46   22   90 1    
    47   23   91 1    
    48   23   92 1    
    49   23   93 1    
    50   24   25 am   BACKBONE|DICT|INTERRES
    51   24   94 1    
    52   25   26 2    
    53   25   27 1    
    54   27   28 1    
    55   27   29 1    
    56   27   95 1    
    57   28   96 1    
    58   28   97 1    
    59   28   98 1    
    60   29   30 am   BACKBONE|DICT|INTERRES
    61   29   99 1    
    62   30   31 2    
    63   30   32 1    
    64   32   33 1    
    65   32   34 1    
    66   32  100 1    
    67   33  101 1    
    68   33  102 1    
    69   33  103 1    
    70   34   35 am   BACKBONE|DICT|INTERRES
    71   34  104 1    
    72   35   36 2    
    73   37   38 2    
    74   37   39 am   BACKBONE|DICT|INTERRES
    75   39   40 1    
    76   39  105 1    
    77   40   41 1    
    78   40   42 1    
    79   40  106 1    
    80   41  107 1    
    81   41  108 1    
    82   41  109 1    
    83   42   43 2    
    84   42   44 am   BACKBONE|DICT|INTERRES
    85   44   45 1    
    86   44  110 1    
    87   45   46 1    
    88   45   47 1    
    89   45  111 1    
    90   46  112 1    
    91   46  113 1    
    92   46  114 1    
    93   47   48 2    
    94   47   49 am   BACKBONE|DICT|INTERRES
    95   49   50 1    
    96   49  115 1    
    97   50   51 1    
    98   50   52 1    
    99   50  116 1    
   100   51  117 1    
   101   51  118 1    
   102   51  119 1    
   103   52   53 2    
   104   52   54 am   BACKBONE|DICT|INTERRES
   105   54   55 1    
   106   54  120 1    
   107   55   56 1    
   108   55   57 1    
   109   55  121 1    
   110   56  122 1    
   111   56  123 1    
   112   56  124 1    
   113   57   58 2    
   114   57   59 am   BACKBONE|DICT|INTERRES
   115   59   60 1    
   116   59  125 1    
   117   60   61 1    
   118   60   62 1    
   119   60  126 1    
   120   61  127 1    
   121   61  128 1    
   122   61  129 1    
   123   62   63 2    
   124   62   64 am   BACKBONE|DICT|INTERRES
   125   64   65 1    
   126   64  130 1    
   127   65   66 1    
   128   65   69 1    
   129   65  131 1    
   130   66   67 am   BACKBONE|DICT|INTERRES
   131   66   68 2    
   132   67  132 1    
   133   67  133 1    
   134   69   70 1    
   135   69  134 1    
   136   69  135 1    
   137   70   71 1    
   138   71  136 1    
   139   71  137 1    
@<TRIPOS>SUBSTRUCTURE
     1 UNK         1 GROUP             0       ****    0 ROOT    
