@<TRIPOS>MOLECULE
3R137
137   139    1
SMALL
USER_CHARGES


@<TRIPOS>ATOM
      1 CA         25.2730   -5.9303   -1.6570 C.3       0 UNK        -0.2020 
      2 C          26.5080   -5.5024   -2.4461 C.2       0 UNK         0.4855 
      3 O          26.5983   -5.8175   -3.6288 O.2       0 UNK        -0.5197 
      4 N          27.4805   -4.7968   -1.8488 N.am      1 UNK        -0.4892 
      5 CA         27.4998   -4.3269   -0.4540 C.3       1 UNK         0.0835 
      6 C6         28.9295   -3.9890    0.0373 C.3       12 UNK        -0.0855 
      7 S7         30.0437   -5.4343   -0.0824 S.3       12 UNK        -0.2931 
      8 C8         31.5037   -4.7595   -0.9445 C.3       12 UNK         0.0378 
      9 C9         31.1615   -4.1024   -2.2760 C.ar      12 UNK        -0.0802 
     10 C10        31.4772   -2.7600   -2.4921 C.ar      12 UNK        -0.0944 
     11 C11        31.1569   -2.1360   -3.7003 C.ar      12 UNK        -0.0787 
     12 C12        30.5079   -2.8699   -4.7013 C.ar      12 UNK        -0.0862 
     13 C13        30.1768   -4.2185   -4.4964 C.ar      12 UNK        -0.0733 
     14 C14        30.5266   -4.8271   -3.2869 C.ar      12 UNK        -0.0832 
     15 C15        29.4616   -5.0752   -5.5430 C.3       12 UNK         0.0240 
     16 S16        28.5093   -4.1837   -6.8174 S.3       12 UNK        -0.2522 
     17 C17        27.2538   -3.2559   -5.8599 C.3       12 UNK        -0.0967 
     18 CA         26.7745   -2.0209   -6.6625 C.3       5 UNK         0.0660 
     19 N          25.4905   -1.4782   -6.2156 N.am      5 UNK        -0.4015 
     20 C          24.7169   -0.7019   -6.9925 C.2       4 UNK         0.4946 
     21 O          24.9799   -0.4255   -8.1643 O.2       4 UNK        -0.5353 
     22 CA         23.4670   -0.0861   -6.3421 C.3       4 UNK         0.0277 
     23 CB         22.3379   -1.1237   -6.2342 C.3       4 UNK        -0.1981 
     24 N          23.7417    0.4870   -5.0233 N.am      4 UNK        -0.4209 
     25 C          24.5926    1.4981   -4.7946 C.2       3 UNK         0.4942 
     26 O          25.1908    2.1040   -5.6830 O.2       3 UNK        -0.5208 
     27 CA         24.8530    1.8764   -3.3260 C.3       3 UNK         0.0250 
     28 CB         23.9030    3.0036   -2.8912 C.3       3 UNK        -0.1990 
     29 N          24.7539    0.7629   -2.3757 N.am      3 UNK        -0.4232 
     30 C          25.4380   -0.3892   -2.4291 C.2       2 UNK         0.4993 
     31 O          26.2122   -0.7007   -3.3416 O.2       2 UNK        -0.5286 
     32 CA         25.1588   -1.3721   -1.2877 C.3       2 UNK         0.0209 
     33 CB         23.7555   -1.9945   -1.4288 C.3       2 UNK        -0.1931 
     34 N          26.1592   -2.4345   -1.2911 N.am      2 UNK        -0.4546 
     35 C          26.5400   -3.1411   -0.2192 C.2       1 UNK         0.5154 
     36 O          26.1309   -2.9176    0.9209 O.2       1 UNK        -0.5181 
     37 C          27.8446   -0.9185   -6.7327 C.2       5 UNK         0.5014 
     38 O          28.6332   -0.9283   -7.6745 O.2       5 UNK        -0.5248 
     39 N          27.8393    0.0331   -5.7856 N.am      6 UNK        -0.4434 
     40 CA         28.7596    1.1762   -5.7889 C.3       6 UNK         0.0363 
     41 CB         28.5647    2.0350   -4.5312 C.3       6 UNK        -0.1936 
     42 C          28.6663    2.0337   -7.0597 C.2       6 UNK         0.5081 
     43 O          29.7042    2.4195   -7.5980 O.2       6 UNK        -0.5248 
     44 N          27.4375    2.2680   -7.5374 N.am      7 UNK        -0.4718 
     45 CA         27.1572    2.9186   -8.8153 C.3       7 UNK         0.0273 
     46 CB         25.6642    3.2766   -8.8903 C.3       7 UNK        -0.1935 
     47 C          27.5757    2.0598  -10.0211 C.2       7 UNK         0.5018 
     48 O          28.2224    2.5808  -10.9299 O.2       7 UNK        -0.5186 
     49 N          27.2032    0.7706  -10.0129 N.am      8 UNK        -0.4240 
     50 CA         27.4580   -0.1705  -11.1091 C.3       8 UNK         0.0235 
     51 CB         26.6390   -1.4533  -10.8947 C.3       8 UNK        -0.2000 
     52 C          28.9458   -0.5072  -11.3059 C.2       8 UNK         0.4941 
     53 O          29.4213   -0.4970  -12.4420 O.2       8 UNK        -0.5273 
     54 N          29.6518   -0.8012  -10.2067 N.am      9 UNK        -0.4262 
     55 CA         31.0757   -1.1460  -10.1954 C.3       9 UNK         0.0264 
     56 CB         31.3763   -2.0025   -8.9528 C.3       9 UNK        -0.1955 
     57 C          31.9949    0.0866  -10.2265 C.2       9 UNK         0.5031 
     58 O          33.1920   -0.0787  -10.4662 O.2       9 UNK        -0.5390 
     59 N          31.4330    1.2798   -9.9760 N.am      10 UNK        -0.4204 
     60 CA         32.1062    2.5765   -9.8547 C.3       10 UNK         0.0237 
     61 CB         32.7280    3.0120  -11.1994 C.3       10 UNK        -0.1985 
     62 C          33.1063    2.5856   -8.6835 C.2       10 UNK         0.4970 
     63 O          34.2916    2.8624   -8.8801 O.2       10 UNK        -0.4914 
     64 N          32.6013    2.2705   -7.4830 N.am      11 UNK        -0.4285 
     65 CA         33.3739    2.2795   -6.2284 C.3       11 UNK         0.1007 
     66 C          33.8020    3.6998   -5.7517 C.2       11 UNK         0.5703 
     67 N          33.1833    4.7767   -6.2233 N.am      11 UNK        -0.7361 
     68 O          34.7167    3.8244   -4.9408 O.2       11 UNK        -0.4986 
     69 C69        32.6446    1.5312   -5.0819 C.3       12 UNK        -0.0947 
     70 S70        32.3923   -0.2497   -5.3847 S.3       12 UNK        -0.2240 
     71 C71        31.4592   -0.6522   -3.8703 C.3       12 UNK         0.0194 
     72 H72        25.5479   -6.5095   -0.7764 H         1 UNK         0.0906 
     73 H73        24.6846   -5.0679   -1.3471 H         1 UNK         0.0906 
     74 H74        24.6309   -6.5599   -2.2727 H         1 UNK         0.0906 
     75 H75        28.3019   -4.5583   -2.3868 H         1 UNK         0.3140 
     76 H76        27.1382   -5.1385    0.1800 H         1 UNK         0.1085 
     77 H77        29.3364   -3.1429   -0.5182 H         1 UNK         0.0836 
     78 H78        28.9093   -3.6776    1.0837 H         1 UNK         0.0836 
     79 H79        32.2142   -5.5682   -1.1210 H         1 UNK         0.0731 
     80 H80        32.0036   -4.0535   -0.2793 H         1 UNK         0.0731 
     81 H81        31.9630   -2.1939   -1.7089 H         1 UNK         0.1312 
     82 H82        30.2585   -2.3813   -5.6328 H         1 UNK         0.1406 
     83 H83        30.2885   -5.8697   -3.1197 H         1 UNK         0.1631 
     84 H84        28.7872   -5.7760   -5.0506 H         1 UNK         0.0717 
     85 H85        30.2116   -5.6831   -6.0501 H         1 UNK         0.0717 
     86 H86        26.4180   -3.9320   -5.6733 H         1 UNK         0.0934 
     87 H87        27.6395   -2.9704   -4.8797 H         1 UNK         0.0934 
     88 H88        26.6133   -2.3625   -7.6872 H         1 UNK         0.0739 
     89 H89        25.2609   -1.5886   -5.2373 H         1 UNK         0.3093 
     90 H90        23.1253    0.7241   -6.9900 H         1 UNK         0.0818 
     91 H91        21.4181   -0.6713   -5.8628 H         1 UNK         0.0819 
     92 H92        22.1120   -1.5554   -7.2105 H         1 UNK         0.0819 
     93 H93        22.6009   -1.9458   -5.5675 H         1 UNK         0.0819 
     94 H94        23.2848    0.0597   -4.2313 H         1 UNK         0.3041 
     95 H95        25.8724    2.2552   -3.2598 H         1 UNK         0.0784 
     96 H96        23.9756    3.8574   -3.5669 H         1 UNK         0.0793 
     97 H97        22.8620    2.6777   -2.8892 H         1 UNK         0.0793 
     98 H98        24.1449    3.3651   -1.8915 H         1 UNK         0.0793 
     99 H99        24.1317    0.9099   -1.5934 H         1 UNK         0.3024 
    100 H100       25.2238   -0.8187   -0.3476 H         1 UNK         0.1171 
    101 H101       23.5397   -2.6758   -0.6055 H         1 UNK         0.0786 
    102 H102       22.9759   -1.2319   -1.4209 H         1 UNK         0.0786 
    103 H103       23.6561   -2.5556   -2.3590 H         1 UNK         0.0786 
    104 H104       26.5857   -2.6183   -2.1903 H         1 UNK         0.2977 
    105 H105       27.1851   -0.0437   -5.0131 H         1 UNK         0.3127 
    106 H106       29.7643    0.7612   -5.7752 H         1 UNK         0.0770 
    107 H107       27.6463    2.6174   -4.5853 H         1 UNK         0.0814 
    108 H108       29.3827    2.7474   -4.4207 H         1 UNK         0.0814 
    109 H109       28.5333    1.4291   -3.6254 H         1 UNK         0.0814 
    110 H110       26.6364    1.9706   -6.9857 H         1 UNK         0.2983 
    111 H111       27.7325    3.8464   -8.8538 H         1 UNK         0.0947 
    112 H112       25.4267    3.7716   -9.8329 H         1 UNK         0.0806 
    113 H113       25.3804    3.9555   -8.0859 H         1 UNK         0.0806 
    114 H114       25.0312    2.3912   -8.8152 H         1 UNK         0.0806 
    115 H115       26.6566    0.4246   -9.2314 H         1 UNK         0.3000 
    116 H116       27.1058    0.2992  -12.0301 H         1 UNK         0.0850 
    117 H117       26.7752   -2.1468  -11.7255 H         1 UNK         0.0810 
    118 H118       25.5728   -1.2373  -10.8239 H         1 UNK         0.0810 
    119 H119       26.9366   -1.9736   -9.9844 H         1 UNK         0.0810 
    120 H120       29.1838   -0.8047   -9.2971 H         1 UNK         0.3040 
    121 H121       31.2983   -1.7450  -11.0810 H         1 UNK         0.0766 
    122 H122       31.2300   -1.4388   -8.0307 H         1 UNK         0.0812 
    123 H123       32.4096   -2.3512   -8.9580 H         1 UNK         0.0812 
    124 H124       30.7353   -2.8833   -8.9099 H         1 UNK         0.0812 
    125 H125       30.4441    1.2883   -9.7636 H         1 UNK         0.3205 
    126 H126       31.3309    3.3030   -9.6068 H         1 UNK         0.0754 
    127 H127       33.1358    4.0211  -11.1296 H         1 UNK         0.0769 
    128 H128       31.9828    3.0177  -11.9950 H         1 UNK         0.0769 
    129 H129       33.5418    2.3549  -11.5071 H         1 UNK         0.0769 
    130 H130       31.6011    2.1095   -7.4072 H         1 UNK         0.2981 
    131 H131       34.3034    1.7417   -6.4248 H         1 UNK         0.0541 
    132 H132       32.4262    4.6851   -6.8810 H         1 UNK         0.3459 
    133 H133       33.4733    5.6893   -5.9093 H         1 UNK         0.3459 
    134 H134       31.6786    1.9980   -4.8860 H         1 UNK         0.0612 
    135 H135       33.2146    1.6139   -4.1542 H         1 UNK         0.0612 
    136 H136       30.5174   -0.1070   -3.8537 H         1 UNK         0.0624 
    137 H137       32.0317   -0.2854   -3.0168 H         1 UNK         0.0624 
@<TRIPOS>BOND
     1    1    2 1    
     2    1   72 1    
     3    1   73 1    
     4    1   74 1    
     5    2    3 2    
     6    2    4 am   BACKBONE|DICT|INTERRES
     7    4    5 1    
     8    4   75 1    
     9    5    6 1    
    10    5   35 1    
    11    5   76 1    
    12    6    7 1    
    13    6   77 1    
    14    6   78 1    
    15    7    8 1    
    16    8    9 1    
    17    8   79 1    
    18    8   80 1    
    19    9   10 ar   
    20    9   14 ar   
    21   10   11 ar   
    22   10   81 1    
    23   11   12 ar   
    24   11   71 1    
    25   12   13 ar   
    26   12   82 1    
    27   13   14 ar   
    28   13   15 1    
    29   14   83 1    
    30   15   16 1    
    31   15   84 1    
    32   15   85 1    
    33   16   17 1    
    34   17   18 1    
    35   17   86 1    
    36   17   87 1    
    37   18   19 1    
    38   18   37 1    
    39   18   88 1    
    40   19   20 am   BACKBONE|DICT|INTERRES
    41   19   89 1    
    42   20   21 2    
    43   20   22 1    
    44   22   23 1    
    45   22   24 1    
    46   22   90 1    
    47   23   91 1    
    48   23   92 1    
    49   23   93 1    
    50   24   25 am   BACKBONE|DICT|INTERRES
    51   24   94 1    
    52   25   26 2    
    53   25   27 1    
    54   27   28 1    
    55   27   29 1    
    56   27   95 1    
    57   28   96 1    
    58   28   97 1    
    59   28   98 1    
    60   29   30 am   BACKBONE|DICT|INTERRES
    61   29   99 1    
    62   30   31 2    
    63   30   32 1    
    64   32   33 1    
    65   32   34 1    
    66   32  100 1    
    67   33  101 1    
    68   33  102 1    
    69   33  103 1    
    70   34   35 am   BACKBONE|DICT|INTERRES
    71   34  104 1    
    72   35   36 2    
    73   37   38 2    
    74   37   39 am   BACKBONE|DICT|INTERRES
    75   39   40 1    
    76   39  105 1    
    77   40   41 1    
    78   40   42 1    
    79   40  106 1    
    80   41  107 1    
    81   41  108 1    
    82   41  109 1    
    83   42   43 2    
    84   42   44 am   BACKBONE|DICT|INTERRES
    85   44   45 1    
    86   44  110 1    
    87   45   46 1    
    88   45   47 1    
    89   45  111 1    
    90   46  112 1    
    91   46  113 1    
    92   46  114 1    
    93   47   48 2    
    94   47   49 am   BACKBONE|DICT|INTERRES
    95   49   50 1    
    96   49  115 1    
    97   50   51 1    
    98   50   52 1    
    99   50  116 1    
   100   51  117 1    
   101   51  118 1    
   102   51  119 1    
   103   52   53 2    
   104   52   54 am   BACKBONE|DICT|INTERRES
   105   54   55 1    
   106   54  120 1    
   107   55   56 1    
   108   55   57 1    
   109   55  121 1    
   110   56  122 1    
   111   56  123 1    
   112   56  124 1    
   113   57   58 2    
   114   57   59 am   BACKBONE|DICT|INTERRES
   115   59   60 1    
   116   59  125 1    
   117   60   61 1    
   118   60   62 1    
   119   60  126 1    
   120   61  127 1    
   121   61  128 1    
   122   61  129 1    
   123   62   63 2    
   124   62   64 am   BACKBONE|DICT|INTERRES
   125   64   65 1    
   126   64  130 1    
   127   65   66 1    
   128   65   69 1    
   129   65  131 1    
   130   66   67 am   BACKBONE|DICT|INTERRES
   131   66   68 2    
   132   67  132 1    
   133   67  133 1    
   134   69   70 1    
   135   69  134 1    
   136   69  135 1    
   137   70   71 1    
   138   71  136 1    
   139   71  137 1    
@<TRIPOS>SUBSTRUCTURE
     1 UNK         1 GROUP             0       ****    0 ROOT    
