@<TRIPOS>MOLECULE
3R137
137   139    1
SMALL
USER_CHARGES


@<TRIPOS>ATOM
      1 CA         26.6789   -0.1589    2.2927 C.3       0 UNK        -0.2020 
      2 C          26.9966   -0.7749    0.9381 C.2       0 UNK         0.4855 
      3 O          26.6864   -0.1764   -0.0912 O.2       0 UNK        -0.5197 
      4 N          27.6186   -1.9604    0.9356 N.am      1 UNK        -0.4892 
      5 CA         27.9847   -2.7225   -0.2647 C.3       1 UNK         0.0835 
      6 C6         28.9680   -3.8723    0.0697 C.3       12 UNK        -0.0855 
      7 S7         30.5390   -3.2492    0.7566 S.3       12 UNK        -0.2931 
      8 C8         31.7062   -3.5859   -0.6042 C.3       12 UNK         0.0378 
      9 C9         31.3907   -2.8073   -1.8772 C.ar      12 UNK        -0.0802 
     10 C10        31.2330   -3.4827   -3.0928 C.ar      12 UNK        -0.0944 
     11 C11        31.0060   -2.7735   -4.2769 C.ar      12 UNK        -0.0787 
     12 C12        30.9050   -1.3815   -4.2349 C.ar      12 UNK        -0.0862 
     13 C13        31.0513   -0.6951   -3.0266 C.ar      12 UNK        -0.0733 
     14 C14        31.3041   -1.4108   -1.8529 C.ar      12 UNK        -0.0832 
     15 C15        30.9426    0.8219   -2.9980 C.3       12 UNK         0.0240 
     16 S16        29.3478    1.4007   -2.3300 S.3       12 UNK        -0.2522 
     17 C17        28.1193    0.4450   -3.2854 C.3       12 UNK        -0.0967 
     18 CA         28.0162    0.8488   -4.7786 C.3       5 UNK         0.0660 
     19 N          27.4316   -0.2266   -5.5848 N.am      5 UNK        -0.4015 
     20 C          27.4638   -0.2808   -6.9255 C.2       4 UNK         0.4946 
     21 O          28.0516    0.5467   -7.6181 O.2       4 UNK        -0.5353 
     22 CA         26.6850   -1.4116   -7.6290 C.3       4 UNK         0.0277 
     23 CB         27.6143   -2.5936   -7.9403 C.3       4 UNK        -0.1981 
     24 N          25.5340   -1.9037   -6.8733 N.am      4 UNK        -0.4209 
     25 C          24.4888   -1.1689   -6.4675 C.2       3 UNK         0.4942 
     26 O          24.3152    0.0070   -6.7886 O.2       3 UNK        -0.5208 
     27 CA         23.5262   -1.8392   -5.4648 C.3       3 UNK         0.0250 
     28 CB         22.3075   -2.4200   -6.1985 C.3       3 UNK        -0.1990 
     29 N          24.1534   -2.8895   -4.6424 N.am      3 UNK        -0.4232 
     30 C          25.2318   -2.7070   -3.8647 C.2       2 UNK         0.4993 
     31 O          25.7907   -1.6154   -3.7379 O.2       2 UNK        -0.5286 
     32 CA         25.8420   -3.9554   -3.2072 C.3       2 UNK         0.0209 
     33 CB         26.4430   -4.8892   -4.2740 C.3       2 UNK        -0.1931 
     34 N          26.9139   -3.5652   -2.2899 N.am      2 UNK        -0.4546 
     35 C          26.7419   -3.2728   -0.9965 C.2       1 UNK         0.5154 
     36 O          25.6830   -3.4554   -0.3878 O.2       1 UNK        -0.5181 
     37 C          27.2448    2.1700   -4.9619 C.2       5 UNK         0.5014 
     38 O          27.8691    3.2193   -5.1226 O.2       5 UNK        -0.5248 
     39 N          25.9052    2.0908   -4.9791 N.am      6 UNK        -0.4434 
     40 CA         25.0142    3.2264   -5.2302 C.3       6 UNK         0.0363 
     41 CB         23.5751    2.8551   -4.8374 C.3       6 UNK        -0.1936 
     42 C          25.0791    3.7055   -6.6900 C.2       6 UNK         0.5081 
     43 O          25.0325    4.9112   -6.9343 O.2       6 UNK        -0.5248 
     44 N          25.2126    2.7586   -7.6294 N.am      7 UNK        -0.4718 
     45 CA         25.4048    3.0286   -9.0578 C.3       7 UNK         0.0273 
     46 CB         25.1201    1.7435   -9.8513 C.3       7 UNK        -0.1935 
     47 C          26.8089    3.5626   -9.4048 C.2       7 UNK         0.5018 
     48 O          26.9688    4.1510  -10.4748 O.2       7 UNK        -0.5186 
     49 N          27.7878    3.3287   -8.5162 N.am      8 UNK        -0.4240 
     50 CA         29.2266    3.5783   -8.6680 C.3       8 UNK         0.0235 
     51 CB         29.5247    5.0901   -8.7577 C.3       8 UNK        -0.2000 
     52 C          29.8174    2.7637   -9.8354 C.2       8 UNK         0.4941 
     53 O          30.4627    3.3246  -10.7240 O.2       8 UNK        -0.5273 
     54 N          29.5461    1.4542   -9.8211 N.am      9 UNK        -0.4262 
     55 CA         29.8779    0.4978  -10.8732 C.3       9 UNK         0.0264 
     56 CB         28.5732    0.1252  -11.6022 C.3       9 UNK        -0.1955 
     57 C          30.5429   -0.7520  -10.2784 C.2       9 UNK         0.5031 
     58 O          30.5769   -0.9178   -9.0564 O.2       9 UNK        -0.5390 
     59 N          31.0369   -1.6217  -11.1717 N.am      10 UNK        -0.4204 
     60 CA         31.6118   -2.9570  -10.9474 C.3       10 UNK         0.0237 
     61 CB         30.5698   -3.9224  -10.3449 C.3       10 UNK        -0.1985 
     62 C          32.9169   -2.9732  -10.1337 C.2       10 UNK         0.4970 
     63 O          33.9413   -3.4264  -10.6455 O.2       10 UNK        -0.4914 
     64 N          32.8506   -2.4994   -8.8876 N.am      11 UNK        -0.4285 
     65 CA         33.9613   -2.4710   -7.9260 C.3       11 UNK         0.1007 
     66 C          34.9177   -1.2554   -8.0968 C.2       11 UNK         0.5703 
     67 N          34.6134   -0.2793   -8.9445 N.am      11 UNK        -0.7361 
     68 O          35.9656   -1.2041   -7.4571 O.2       11 UNK        -0.4986 
     69 C69        33.4472   -2.5846   -6.4680 C.3       12 UNK        -0.0947 
     70 S70        32.5157   -4.1284   -6.1652 S.3       12 UNK        -0.2240 
     71 C71        30.8972   -3.5050   -5.6077 C.3       12 UNK         0.0194 
     72 H72        27.0208   -0.7848    3.1169 H         1 UNK         0.0906 
     73 H73        27.1606    0.8143    2.3839 H         1 UNK         0.0906 
     74 H74        25.6034   -0.0183    2.3971 H         1 UNK         0.0906 
     75 H75        27.8434   -2.4055    1.8137 H         1 UNK         0.3140 
     76 H76        28.4816   -2.0294   -0.9481 H         1 UNK         0.1085 
     77 H77        29.1840   -4.4732   -0.8160 H         1 UNK         0.0836 
     78 H78        28.5237   -4.5581    0.7938 H         1 UNK         0.0836 
     79 H79        31.7223   -4.6599   -0.7968 H         1 UNK         0.0731 
     80 H80        32.7118   -3.3210   -0.2748 H         1 UNK         0.0731 
     81 H81        31.3188   -4.5603   -3.1282 H         1 UNK         0.1312 
     82 H82        30.7229   -0.8308   -5.1479 H         1 UNK         0.1406 
     83 H83        31.4273   -0.8810   -0.9178 H         1 UNK         0.1631 
     84 H84        31.0860    1.2376   -3.9963 H         1 UNK         0.0717 
     85 H85        31.7475    1.2314   -2.3860 H         1 UNK         0.0717 
     86 H86        28.3691   -0.6121   -3.1929 H         1 UNK         0.0934 
     87 H87        27.1522    0.5411   -2.7872 H         1 UNK         0.0934 
     88 H88        29.0242    1.0095   -5.1643 H         1 UNK         0.0739 
     89 H89        26.8796   -0.9072   -5.0678 H         1 UNK         0.3093 
     90 H90        26.3100   -1.0163   -8.5736 H         1 UNK         0.0818 
     91 H91        28.4503   -2.2718   -8.5586 H         1 UNK         0.0819 
     92 H92        28.0285   -3.0354   -7.0335 H         1 UNK         0.0819 
     93 H93        27.0946   -3.3772   -8.4918 H         1 UNK         0.0819 
     94 H94        25.5748   -2.8645   -6.5687 H         1 UNK         0.3041 
     95 H95        23.1777   -1.0580   -4.7860 H         1 UNK         0.0784 
     96 H96        21.8123   -1.6545   -6.7981 H         1 UNK         0.0793 
     97 H97        22.5887   -3.2303   -6.8724 H         1 UNK         0.0793 
     98 H98        21.5679   -2.8063   -5.4968 H         1 UNK         0.0793 
     99 H99        23.7480   -3.8129   -4.7061 H         1 UNK         0.3024 
    100 H100       25.0550   -4.4840   -2.6641 H         1 UNK         0.1171 
    101 H101       26.9054   -5.7636   -3.8152 H         1 UNK         0.0786 
    102 H102       25.6789   -5.2582   -4.9592 H         1 UNK         0.0786 
    103 H103       27.2051   -4.3869   -4.8716 H         1 UNK         0.0786 
    104 H104       27.8058   -3.3607   -2.7165 H         1 UNK         0.2977 
    105 H105       25.4697    1.1839   -4.8835 H         1 UNK         0.3127 
    106 H106       25.3356    4.0548   -4.5950 H         1 UNK         0.0770 
    107 H107       23.1880    2.0314   -5.4379 H         1 UNK         0.0814 
    108 H108       22.9038    3.7030   -4.9796 H         1 UNK         0.0814 
    109 H109       23.5118    2.5653   -3.7884 H         1 UNK         0.0814 
    110 H110       25.1569    1.7851   -7.3454 H         1 UNK         0.2983 
    111 H111       24.6803    3.7875   -9.3617 H         1 UNK         0.0947 
    112 H112       25.8625    0.9740   -9.6428 H         1 UNK         0.0806 
    113 H113       25.1471    1.9352  -10.9248 H         1 UNK         0.0806 
    114 H114       24.1359    1.3368   -9.6175 H         1 UNK         0.0806 
    115 H115       27.5377    2.7831   -7.7014 H         1 UNK         0.3000 
    116 H116       29.6985    3.2016   -7.7590 H         1 UNK         0.0850 
    117 H117       29.1075    5.6258   -7.9050 H         1 UNK         0.0810 
    118 H118       29.1161    5.5339   -9.6659 H         1 UNK         0.0810 
    119 H119       30.5996    5.2740   -8.7628 H         1 UNK         0.0810 
    120 H120       29.0661    1.0599   -9.0099 H         1 UNK         0.3040 
    121 H121       30.5770    0.9423  -11.5846 H         1 UNK         0.0766 
    122 H122       28.7579   -0.5497  -12.4385 H         1 UNK         0.0812 
    123 H123       28.0814    1.0102  -12.0069 H         1 UNK         0.0812 
    124 H124       27.8677   -0.3685  -10.9321 H         1 UNK         0.0812 
    125 H125       30.9880   -1.3522  -12.1449 H         1 UNK         0.3205 
    126 H126       31.8615   -3.3359  -11.9400 H         1 UNK         0.0754 
    127 H127       30.9681   -4.9362  -10.2878 H         1 UNK         0.0769 
    128 H128       29.6669   -3.9626  -10.9542 H         1 UNK         0.0769 
    129 H129       30.2788   -3.6355   -9.3343 H         1 UNK         0.0769 
    130 H130       31.9798   -2.0597   -8.5997 H         1 UNK         0.2981 
    131 H131       34.5811   -3.3502   -8.1125 H         1 UNK         0.0541 
    132 H132       35.2453    0.4985   -9.0503 H         1 UNK         0.3459 
    133 H133       33.7562   -0.3130   -9.4713 H         1 UNK         0.3459 
    134 H134       34.2797   -2.5691   -5.7623 H         1 UNK         0.0612 
    135 H135       32.8293   -1.7195   -6.2271 H         1 UNK         0.0612 
    136 H136       30.2091   -4.3451   -5.5044 H         1 UNK         0.0624 
    137 H137       30.4796   -2.8562   -6.3798 H         1 UNK         0.0624 
@<TRIPOS>BOND
     1    1    2 1    
     2    1   72 1    
     3    1   73 1    
     4    1   74 1    
     5    2    3 2    
     6    2    4 am   BACKBONE|DICT|INTERRES
     7    4    5 1    
     8    4   75 1    
     9    5    6 1    
    10    5   35 1    
    11    5   76 1    
    12    6    7 1    
    13    6   77 1    
    14    6   78 1    
    15    7    8 1    
    16    8    9 1    
    17    8   79 1    
    18    8   80 1    
    19    9   10 ar   
    20    9   14 ar   
    21   10   11 ar   
    22   10   81 1    
    23   11   12 ar   
    24   11   71 1    
    25   12   13 ar   
    26   12   82 1    
    27   13   14 ar   
    28   13   15 1    
    29   14   83 1    
    30   15   16 1    
    31   15   84 1    
    32   15   85 1    
    33   16   17 1    
    34   17   18 1    
    35   17   86 1    
    36   17   87 1    
    37   18   19 1    
    38   18   37 1    
    39   18   88 1    
    40   19   20 am   BACKBONE|DICT|INTERRES
    41   19   89 1    
    42   20   21 2    
    43   20   22 1    
    44   22   23 1    
    45   22   24 1    
    46   22   90 1    
    47   23   91 1    
    48   23   92 1    
    49   23   93 1    
    50   24   25 am   BACKBONE|DICT|INTERRES
    51   24   94 1    
    52   25   26 2    
    53   25   27 1    
    54   27   28 1    
    55   27   29 1    
    56   27   95 1    
    57   28   96 1    
    58   28   97 1    
    59   28   98 1    
    60   29   30 am   BACKBONE|DICT|INTERRES
    61   29   99 1    
    62   30   31 2    
    63   30   32 1    
    64   32   33 1    
    65   32   34 1    
    66   32  100 1    
    67   33  101 1    
    68   33  102 1    
    69   33  103 1    
    70   34   35 am   BACKBONE|DICT|INTERRES
    71   34  104 1    
    72   35   36 2    
    73   37   38 2    
    74   37   39 am   BACKBONE|DICT|INTERRES
    75   39   40 1    
    76   39  105 1    
    77   40   41 1    
    78   40   42 1    
    79   40  106 1    
    80   41  107 1    
    81   41  108 1    
    82   41  109 1    
    83   42   43 2    
    84   42   44 am   BACKBONE|DICT|INTERRES
    85   44   45 1    
    86   44  110 1    
    87   45   46 1    
    88   45   47 1    
    89   45  111 1    
    90   46  112 1    
    91   46  113 1    
    92   46  114 1    
    93   47   48 2    
    94   47   49 am   BACKBONE|DICT|INTERRES
    95   49   50 1    
    96   49  115 1    
    97   50   51 1    
    98   50   52 1    
    99   50  116 1    
   100   51  117 1    
   101   51  118 1    
   102   51  119 1    
   103   52   53 2    
   104   52   54 am   BACKBONE|DICT|INTERRES
   105   54   55 1    
   106   54  120 1    
   107   55   56 1    
   108   55   57 1    
   109   55  121 1    
   110   56  122 1    
   111   56  123 1    
   112   56  124 1    
   113   57   58 2    
   114   57   59 am   BACKBONE|DICT|INTERRES
   115   59   60 1    
   116   59  125 1    
   117   60   61 1    
   118   60   62 1    
   119   60  126 1    
   120   61  127 1    
   121   61  128 1    
   122   61  129 1    
   123   62   63 2    
   124   62   64 am   BACKBONE|DICT|INTERRES
   125   64   65 1    
   126   64  130 1    
   127   65   66 1    
   128   65   69 1    
   129   65  131 1    
   130   66   67 am   BACKBONE|DICT|INTERRES
   131   66   68 2    
   132   67  132 1    
   133   67  133 1    
   134   69   70 1    
   135   69  134 1    
   136   69  135 1    
   137   70   71 1    
   138   71  136 1    
   139   71  137 1    
@<TRIPOS>SUBSTRUCTURE
     1 UNK         1 GROUP             0       ****    0 ROOT    
