@<TRIPOS>MOLECULE
3R137
137   139    1
SMALL
USER_CHARGES


@<TRIPOS>ATOM
      1 CA         26.7324   -1.0940    2.9097 C.3       0 UNK        -0.2020 
      2 C          27.1529   -1.3050    1.4634 C.2       0 UNK         0.4855 
      3 O          27.1584   -0.3540    0.6804 O.2       0 UNK        -0.5197 
      4 N          27.4980   -2.5452    1.0956 N.am      1 UNK        -0.4892 
      5 CA         27.9420   -2.9448   -0.2466 C.3       1 UNK         0.0835 
      6 C6         28.8698   -4.1918   -0.1985 C.3       12 UNK        -0.0855 
      7 S7         30.3322   -3.9308    0.8742 S.3       12 UNK        -0.2931 
      8 C8         31.7471   -4.2961   -0.2308 C.3       12 UNK         0.0378 
      9 C9         31.8864   -3.3942   -1.4593 C.ar      12 UNK        -0.0802 
     10 C10        32.5960   -3.8697   -2.5686 C.ar      12 UNK        -0.0944 
     11 C11        32.7045   -3.0997   -3.7310 C.ar      12 UNK        -0.0787 
     12 C12        32.0851   -1.8498   -3.7902 C.ar      12 UNK        -0.0862 
     13 C13        31.3733   -1.3629   -2.6931 C.ar      12 UNK        -0.0733 
     14 C14        31.3153   -2.1168   -1.5182 C.ar      12 UNK        -0.0832 
     15 C15        30.5657   -0.0833   -2.8131 C.3       12 UNK         0.0240 
     16 S16        28.8385   -0.5530   -3.1015 S.3       12 UNK        -0.2522 
     17 C17        28.0324    0.9993   -3.5895 C.3       12 UNK        -0.0967 
     18 CA         27.9491    1.1880   -5.1275 C.3       5 UNK         0.0660 
     19 N          27.5793   -0.0307   -5.8597 N.am      5 UNK        -0.4015 
     20 C          27.7297   -0.1812   -7.1836 C.2       4 UNK         0.4946 
     21 O          28.2611    0.6606   -7.9098 O.2       4 UNK        -0.5353 
     22 CA         27.2065   -1.4758   -7.8288 C.3       4 UNK         0.0277 
     23 CB         28.3510   -2.4905   -7.9770 C.3       4 UNK        -0.1981 
     24 N          26.0928   -2.1041   -7.1168 N.am      4 UNK        -0.4209 
     25 C          24.9170   -1.5328   -6.8197 C.2       3 UNK         0.4942 
     26 O          24.6168   -0.3783   -7.1267 O.2       3 UNK        -0.5208 
     27 CA         23.9258   -2.3778   -5.9975 C.3       3 UNK         0.0250 
     28 CB         24.0679   -3.8969   -6.2421 C.3       3 UNK        -0.1990 
     29 N          23.9850   -2.0910   -4.5567 N.am      3 UNK        -0.4232 
     30 C          25.0671   -2.1020   -3.7607 C.2       2 UNK         0.4993 
     31 O          26.2160   -2.2666   -4.1752 O.2       2 UNK        -0.5286 
     32 CA         24.8122   -1.8454   -2.2604 C.3       2 UNK         0.0209 
     33 CB         23.6454   -2.6926   -1.7043 C.3       2 UNK        -0.1931 
     34 N          26.0099   -2.0118   -1.4242 N.am      2 UNK        -0.4546 
     35 C          26.7249   -3.1232   -1.1846 C.2       1 UNK         0.5154 
     36 O          26.4368   -4.2418   -1.6167 O.2       1 UNK        -0.5181 
     37 C          26.9855    2.3426   -5.4622 C.2       5 UNK         0.5014 
     38 O          27.4354    3.4610   -5.7106 O.2       5 UNK        -0.5248 
     39 N          25.6779    2.0408   -5.4794 N.am      6 UNK        -0.4434 
     40 CA         24.6019    2.9853   -5.7903 C.3       6 UNK         0.0363 
     41 CB         23.2564    2.3996   -5.3323 C.3       6 UNK        -0.1936 
     42 C          24.5596    3.3462   -7.2828 C.2       6 UNK         0.5081 
     43 O          24.2826    4.4963   -7.6225 O.2       6 UNK        -0.5248 
     44 N          24.8737    2.3683   -8.1436 N.am      7 UNK        -0.4718 
     45 CA         25.0287    2.5431   -9.5908 C.3       7 UNK         0.0273 
     46 CB         25.0064    1.1591  -10.2597 C.3       7 UNK        -0.1935 
     47 C          26.3080    3.3064   -9.9898 C.2       7 UNK         0.5018 
     48 O          26.4291    3.6910  -11.1533 O.2       7 UNK        -0.5186 
     49 N          27.2391    3.4852   -9.0384 N.am      8 UNK        -0.4240 
     50 CA         28.5678    4.0945   -9.1803 C.3       8 UNK         0.0235 
     51 CB         28.4615    5.5859   -9.5642 C.3       8 UNK        -0.2000 
     52 C          29.5070    3.2974  -10.1085 C.2       8 UNK         0.4941 
     53 O          30.4116    3.8758  -10.7133 O.2       8 UNK        -0.5273 
     54 N          29.2868    1.9790  -10.1864 N.am      9 UNK        -0.4262 
     55 CA         30.1346    1.0238  -10.8967 C.3       9 UNK         0.0264 
     56 CB         29.2785   -0.1626  -11.3687 C.3       9 UNK        -0.1955 
     57 C          31.2922    0.5394  -10.0107 C.2       9 UNK         0.5031 
     58 O          32.3718    0.2676  -10.5367 O.2       9 UNK        -0.5390 
     59 N          31.0444    0.4359   -8.6930 N.am      10 UNK        -0.4204 
     60 CA         31.9958    0.0930   -7.6249 C.3       10 UNK         0.0237 
     61 CB         32.8960    1.3071   -7.3175 C.3       10 UNK        -0.1985 
     62 C          32.8025   -1.1965   -7.8922 C.2       10 UNK         0.4970 
     63 O          34.0155   -1.2238   -7.6785 O.2       10 UNK        -0.4914 
     64 N          32.1008   -2.2294   -8.3753 N.am      11 UNK        -0.4285 
     65 CA         32.6289   -3.5417   -8.7912 C.3       11 UNK         0.1007 
     66 C          33.4749   -3.5208  -10.1018 C.2       11 UNK         0.5703 
     67 N          33.5438   -2.4225  -10.8459 N.am      11 UNK        -0.7361 
     68 O          34.0559   -4.5368  -10.4766 O.2       11 UNK        -0.4986 
     69 C69        33.3342   -4.3373   -7.6508 C.3       12 UNK        -0.0947 
     70 S70        32.3492   -4.4386   -6.1167 S.3       12 UNK        -0.2240 
     71 C71        33.4665   -3.6166   -4.9388 C.3       12 UNK         0.0194 
     72 H72        25.7099   -0.7195    2.9520 H         1 UNK         0.0906 
     73 H73        26.7805   -2.0166    3.4877 H         1 UNK         0.0906 
     74 H74        27.3837   -0.3615    3.3858 H         1 UNK         0.0906 
     75 H75        27.4650   -3.2909    1.7764 H         1 UNK         0.3140 
     76 H76        28.5265   -2.1264   -0.6671 H         1 UNK         0.1085 
     77 H77        29.2026   -4.4513   -1.2055 H         1 UNK         0.0836 
     78 H78        28.3258   -5.0617    0.1741 H         1 UNK         0.0836 
     79 H79        31.6661   -5.3372   -0.5478 H         1 UNK         0.0731 
     80 H80        32.6656   -4.2232    0.3528 H         1 UNK         0.0731 
     81 H81        33.0532   -4.8495   -2.5347 H         1 UNK         0.1312 
     82 H82        32.1291   -1.2738   -4.7035 H         1 UNK         0.1406 
     83 H83        30.7705   -1.7228   -0.6729 H         1 UNK         0.1631 
     84 H84        30.6459    0.5124   -1.9026 H         1 UNK         0.0717 
     85 H85        30.9276    0.5326   -3.6380 H         1 UNK         0.0717 
     86 H86        27.0355    0.9794   -3.1440 H         1 UNK         0.0934 
     87 H87        28.5516    1.8405   -3.1261 H         1 UNK         0.0934 
     88 H88        28.9432    1.4812   -5.4732 H         1 UNK         0.0739 
     89 H89        27.1899   -0.7942   -5.3138 H         1 UNK         0.3093 
     90 H90        26.8464   -1.2205   -8.8260 H         1 UNK         0.0818 
     91 H91        29.1714   -2.0693   -8.5566 H         1 UNK         0.0819 
     92 H92        28.0207   -3.3895   -8.4979 H         1 UNK         0.0819 
     93 H93        28.7533   -2.7916   -7.0082 H         1 UNK         0.0819 
     94 H94        26.2585   -3.0319   -6.7540 H         1 UNK         0.3041 
     95 H95        22.9301   -2.0841   -6.3337 H         1 UNK         0.0784 
     96 H96        24.0508   -4.1294   -7.3080 H         1 UNK         0.0793 
     97 H97        24.9920   -4.3011   -5.8272 H         1 UNK         0.0793 
     98 H98        23.2421   -4.4419   -5.7845 H         1 UNK         0.0793 
     99 H99        23.0919   -1.8936   -4.1275 H         1 UNK         0.3024 
    100 H100       24.5357   -0.7933   -2.1742 H         1 UNK         0.1171 
    101 H101       23.5318   -2.5505   -0.6294 H         1 UNK         0.0786 
    102 H102       22.6942   -2.4170   -2.1602 H         1 UNK         0.0786 
    103 H103       23.7963   -3.7577   -1.8843 H         1 UNK         0.0786 
    104 H104       26.3498   -1.1664   -0.9750 H         1 UNK         0.2977 
    105 H105       25.4024    1.0782   -5.3452 H         1 UNK         0.3127 
    106 H106       24.7828    3.9056   -5.2304 H         1 UNK         0.0770 
    107 H107       23.2553    2.1969   -4.2613 H         1 UNK         0.0814 
    108 H108       23.0203    1.4697   -5.8511 H         1 UNK         0.0814 
    109 H109       22.4418    3.0977   -5.5298 H         1 UNK         0.0814 
    110 H110       25.0000    1.4278   -7.7780 H         1 UNK         0.2983 
    111 H111       24.1771    3.1191   -9.9593 H         1 UNK         0.0947 
    112 H112       25.0281    1.2498  -11.3466 H         1 UNK         0.0806 
    113 H113       24.1055    0.6034   -9.9984 H         1 UNK         0.0806 
    114 H114       25.8681    0.5600   -9.9672 H         1 UNK         0.0806 
    115 H115       27.0325    3.1183   -8.1187 H         1 UNK         0.3000 
    116 H116       29.0214    4.0447   -8.1891 H         1 UNK         0.0850 
    117 H117       29.4358    6.0732   -9.5127 H         1 UNK         0.0810 
    118 H118       27.7964    6.1225   -8.8875 H         1 UNK         0.0810 
    119 H119       28.0870    5.7183  -10.5795 H         1 UNK         0.0810 
    120 H120       28.5708    1.5875   -9.5817 H         1 UNK         0.3040 
    121 H121       30.5646    1.5061  -11.7773 H         1 UNK         0.0766 
    122 H122       28.5015    0.1642  -12.0601 H         1 UNK         0.0812 
    123 H123       28.7903   -0.6700  -10.5369 H         1 UNK         0.0812 
    124 H124       29.8879   -0.9008  -11.8921 H         1 UNK         0.0812 
    125 H125       30.0979    0.6457   -8.3835 H         1 UNK         0.3205 
    126 H126       31.3948   -0.1046   -6.7360 H         1 UNK         0.0754 
    127 H127       33.5395    1.1133   -6.4583 H         1 UNK         0.0769 
    128 H128       32.3025    2.1909   -7.0831 H         1 UNK         0.0769 
    129 H129       33.5413    1.5515   -8.1622 H         1 UNK         0.0769 
    130 H130       31.1161   -2.0949   -8.5389 H         1 UNK         0.2981 
    131 H131       31.7405   -4.1133   -9.0613 H         1 UNK         0.0541 
    132 H132       33.0906   -1.5581  -10.5669 H         1 UNK         0.3459 
    133 H133       34.0873   -2.4443  -11.6936 H         1 UNK         0.3459 
    134 H134       33.5265   -5.3620   -7.9732 H         1 UNK         0.0612 
    135 H135       34.3140   -3.9079   -7.4372 H         1 UNK         0.0612 
    136 H136       33.9741   -2.7820   -5.4237 H         1 UNK         0.0624 
    137 H137       34.2459   -4.3161   -4.6332 H         1 UNK         0.0624 
@<TRIPOS>BOND
     1    1    2 1    
     2    1   72 1    
     3    1   73 1    
     4    1   74 1    
     5    2    3 2    
     6    2    4 am   BACKBONE|DICT|INTERRES
     7    4    5 1    
     8    4   75 1    
     9    5    6 1    
    10    5   35 1    
    11    5   76 1    
    12    6    7 1    
    13    6   77 1    
    14    6   78 1    
    15    7    8 1    
    16    8    9 1    
    17    8   79 1    
    18    8   80 1    
    19    9   10 ar   
    20    9   14 ar   
    21   10   11 ar   
    22   10   81 1    
    23   11   12 ar   
    24   11   71 1    
    25   12   13 ar   
    26   12   82 1    
    27   13   14 ar   
    28   13   15 1    
    29   14   83 1    
    30   15   16 1    
    31   15   84 1    
    32   15   85 1    
    33   16   17 1    
    34   17   18 1    
    35   17   86 1    
    36   17   87 1    
    37   18   19 1    
    38   18   37 1    
    39   18   88 1    
    40   19   20 am   BACKBONE|DICT|INTERRES
    41   19   89 1    
    42   20   21 2    
    43   20   22 1    
    44   22   23 1    
    45   22   24 1    
    46   22   90 1    
    47   23   91 1    
    48   23   92 1    
    49   23   93 1    
    50   24   25 am   BACKBONE|DICT|INTERRES
    51   24   94 1    
    52   25   26 2    
    53   25   27 1    
    54   27   28 1    
    55   27   29 1    
    56   27   95 1    
    57   28   96 1    
    58   28   97 1    
    59   28   98 1    
    60   29   30 am   BACKBONE|DICT|INTERRES
    61   29   99 1    
    62   30   31 2    
    63   30   32 1    
    64   32   33 1    
    65   32   34 1    
    66   32  100 1    
    67   33  101 1    
    68   33  102 1    
    69   33  103 1    
    70   34   35 am   BACKBONE|DICT|INTERRES
    71   34  104 1    
    72   35   36 2    
    73   37   38 2    
    74   37   39 am   BACKBONE|DICT|INTERRES
    75   39   40 1    
    76   39  105 1    
    77   40   41 1    
    78   40   42 1    
    79   40  106 1    
    80   41  107 1    
    81   41  108 1    
    82   41  109 1    
    83   42   43 2    
    84   42   44 am   BACKBONE|DICT|INTERRES
    85   44   45 1    
    86   44  110 1    
    87   45   46 1    
    88   45   47 1    
    89   45  111 1    
    90   46  112 1    
    91   46  113 1    
    92   46  114 1    
    93   47   48 2    
    94   47   49 am   BACKBONE|DICT|INTERRES
    95   49   50 1    
    96   49  115 1    
    97   50   51 1    
    98   50   52 1    
    99   50  116 1    
   100   51  117 1    
   101   51  118 1    
   102   51  119 1    
   103   52   53 2    
   104   52   54 am   BACKBONE|DICT|INTERRES
   105   54   55 1    
   106   54  120 1    
   107   55   56 1    
   108   55   57 1    
   109   55  121 1    
   110   56  122 1    
   111   56  123 1    
   112   56  124 1    
   113   57   58 2    
   114   57   59 am   BACKBONE|DICT|INTERRES
   115   59   60 1    
   116   59  125 1    
   117   60   61 1    
   118   60   62 1    
   119   60  126 1    
   120   61  127 1    
   121   61  128 1    
   122   61  129 1    
   123   62   63 2    
   124   62   64 am   BACKBONE|DICT|INTERRES
   125   64   65 1    
   126   64  130 1    
   127   65   66 1    
   128   65   69 1    
   129   65  131 1    
   130   66   67 am   BACKBONE|DICT|INTERRES
   131   66   68 2    
   132   67  132 1    
   133   67  133 1    
   134   69   70 1    
   135   69  134 1    
   136   69  135 1    
   137   70   71 1    
   138   71  136 1    
   139   71  137 1    
@<TRIPOS>SUBSTRUCTURE
     1 UNK         1 GROUP             0       ****    0 ROOT    
