@<TRIPOS>MOLECULE
3R137
137   139    1
SMALL
USER_CHARGES


@<TRIPOS>ATOM
      1 CA         28.1472   -2.0175   -4.7034 C.3       0 UNK        -0.2020 
      2 C          27.3947   -3.3101   -4.4451 C.2       0 UNK         0.4855 
      3 O          26.5537   -3.7061   -5.2538 O.2       0 UNK        -0.5197 
      4 N          27.6891   -3.9760   -3.3234 N.am      1 UNK        -0.4892 
      5 CA         27.0202   -5.1995   -2.8767 C.3       1 UNK         0.0835 
      6 C6         27.7693   -5.8650   -1.6990 C.3       12 UNK        -0.0855 
      7 S7         29.3965   -6.5059   -2.2172 S.3       12 UNK        -0.2931 
      8 C8         30.5423   -5.5530   -1.1718 C.3       12 UNK         0.0378 
      9 C9         30.7908   -4.1409   -1.6887 C.ar      12 UNK        -0.0802 
     10 C10        31.4978   -3.9453   -2.8794 C.ar      12 UNK        -0.0944 
     11 C11        31.8325   -2.6565   -3.3071 C.ar      12 UNK        -0.0787 
     12 C12        31.4523   -1.5567   -2.5331 C.ar      12 UNK        -0.0862 
     13 C13        30.7266   -1.7358   -1.3520 C.ar      12 UNK        -0.0733 
     14 C14        30.3904   -3.0301   -0.9392 C.ar      12 UNK        -0.0832 
     15 C15        30.3540   -0.5382   -0.4901 C.3       12 UNK         0.0240 
     16 S16        28.8673    0.3108   -1.1046 S.3       12 UNK        -0.2522 
     17 C17        29.5669    1.6070   -2.1905 C.3       12 UNK        -0.0967 
     18 CA         28.8530    1.6886   -3.5656 C.3       5 UNK         0.0660 
     19 N          27.3997    1.8426   -3.3996 N.am      5 UNK        -0.4015 
     20 C          26.4571    1.5764   -4.3103 C.2       4 UNK         0.4946 
     21 O          26.6993    1.2828   -5.4862 O.2       4 UNK        -0.5353 
     22 CA         24.9972    1.6841   -3.8418 C.3       4 UNK         0.0277 
     23 CB         24.4194    3.0666   -4.1830 C.3       4 UNK        -0.1981 
     24 N          24.1835    0.6414   -4.4696 N.am      4 UNK        -0.4209 
     25 C          24.3211   -0.6635   -4.2007 C.2       3 UNK         0.4942 
     26 O          25.0192   -1.0967   -3.2804 O.2       3 UNK        -0.5208 
     27 CA         23.5862   -1.6309   -5.1427 C.3       3 UNK         0.0250 
     28 CB         24.1761   -1.5580   -6.5643 C.3       3 UNK        -0.1990 
     29 N          23.7055   -3.0056   -4.6554 N.am      3 UNK        -0.4232 
     30 C          22.8490   -3.5923   -3.8076 C.2       2 UNK         0.4993 
     31 O          21.8023   -3.0679   -3.4232 O.2       2 UNK        -0.5286 
     32 CA         23.1987   -5.0061   -3.3058 C.3       2 UNK         0.0209 
     33 CB         22.4076   -6.0655   -4.0914 C.3       2 UNK        -0.1931 
     34 N          24.6289   -5.3088   -3.4023 N.am      2 UNK        -0.4546 
     35 C          25.5500   -4.9006   -2.5190 C.2       1 UNK         0.5154 
     36 O          25.2837   -4.3015   -1.4748 O.2       1 UNK        -0.5181 
     37 C          29.4667    2.7711   -4.4890 C.2       5 UNK         0.5014 
     38 O          30.4304    3.4380   -4.1106 O.2       5 UNK        -0.5248 
     39 N          28.8797    2.9234   -5.6791 N.am      6 UNK        -0.4434 
     40 CA         29.2264    3.8518   -6.7540 C.3       6 UNK         0.0363 
     41 CB         29.0452    5.3198   -6.3202 C.3       6 UNK        -0.1936 
     42 C          28.3596    3.5527   -7.9847 C.2       6 UNK         0.5081 
     43 O          28.8719    3.5643   -9.1028 O.2       6 UNK        -0.5248 
     44 N          27.0723    3.2379   -7.7626 N.am      7 UNK        -0.4718 
     45 CA         26.0928    2.8700   -8.7952 C.3       7 UNK         0.0273 
     46 CB         24.7007    2.7512   -8.1555 C.3       7 UNK        -0.1935 
     47 C          26.4427    1.5766   -9.5525 C.2       7 UNK         0.5018 
     48 O          26.0453    1.4251  -10.7077 O.2       7 UNK        -0.5186 
     49 N          27.2151    0.6930   -8.9056 N.am      8 UNK        -0.4240 
     50 CA         27.8214   -0.5006   -9.5009 C.3       8 UNK         0.0235 
     51 CB         28.3304   -1.4076   -8.3688 C.3       8 UNK        -0.2000 
     52 C          28.9550   -0.2012  -10.5066 C.2       8 UNK         0.4941 
     53 O          29.4405   -1.1375  -11.1435 O.2       8 UNK        -0.5273 
     54 N          29.3840    1.0672  -10.6192 N.am      9 UNK        -0.4262 
     55 CA         30.4327    1.6184  -11.4884 C.3       9 UNK         0.0264 
     56 CB         30.1427    1.3672  -12.9815 C.3       9 UNK        -0.1955 
     57 C          31.8500    1.1731  -11.0999 C.2       9 UNK         0.5031 
     58 O          32.7002    2.0265  -10.8440 O.2       9 UNK        -0.5390 
     59 N          32.0723   -0.1447  -11.0147 N.am      10 UNK        -0.4204 
     60 CA         33.3330   -0.7708  -10.6008 C.3       10 UNK         0.0237 
     61 CB         33.2220   -2.2942  -10.7731 C.3       10 UNK        -0.1985 
     62 C          33.7454   -0.4201   -9.1596 C.2       10 UNK         0.4970 
     63 O          34.9408   -0.3567   -8.8711 O.2       10 UNK        -0.4914 
     64 N          32.7497   -0.1813   -8.2980 N.am      11 UNK        -0.4285 
     65 CA         32.9205    0.2834   -6.9148 C.3       11 UNK         0.1007 
     66 C          33.1626    1.8162   -6.7852 C.2       11 UNK         0.5703 
     67 N          33.1125    2.6032   -7.8552 N.am      11 UNK        -0.7361 
     68 O          33.4246    2.3001   -5.6877 O.2       11 UNK        -0.4986 
     69 C69        31.7549   -0.1937   -6.0079 C.3       12 UNK        -0.0947 
     70 S70        31.6068   -2.0135   -5.9983 S.3       12 UNK        -0.2240 
     71 C71        32.6492   -2.4624   -4.5767 C.3       12 UNK         0.0194 
     72 H72        28.7863   -1.7423   -3.8648 H         1 UNK         0.0906 
     73 H73        28.7685   -2.1249   -5.5887 H         1 UNK         0.0906 
     74 H74        27.4417   -1.2075   -4.8771 H         1 UNK         0.0906 
     75 H75        28.4020   -3.6181   -2.7031 H         1 UNK         0.3140 
     76 H76        27.0273   -5.9037   -3.7121 H         1 UNK         0.1085 
     77 H77        27.1972   -6.7100   -1.3105 H         1 UNK         0.0836 
     78 H78        27.8815   -5.1675   -0.8666 H         1 UNK         0.0836 
     79 H79        30.1753   -5.5399   -0.1442 H         1 UNK         0.0731 
     80 H80        31.4964   -6.0812   -1.1398 H         1 UNK         0.0731 
     81 H81        31.8118   -4.8031   -3.4588 H         1 UNK         0.1312 
     82 H82        31.7344   -0.5614   -2.8415 H         1 UNK         0.1406 
     83 H83        29.8523   -3.1730   -0.0115 H         1 UNK         0.1631 
     84 H84        31.1912    0.1584   -0.4256 H         1 UNK         0.0717 
     85 H85        30.1616   -0.8629    0.5336 H         1 UNK         0.0717 
     86 H86        29.4919    2.5608   -1.6643 H         1 UNK         0.0934 
     87 H87        30.6338    1.4295   -2.3322 H         1 UNK         0.0934 
     88 H88        29.0239    0.7366   -4.0719 H         1 UNK         0.0739 
     89 H89        27.1048    2.0965   -2.4680 H         1 UNK         0.3093 
     90 H90        24.9578    1.5449   -2.7590 H         1 UNK         0.0818 
     91 H91        23.3886    3.1606   -3.8407 H         1 UNK         0.0819 
     92 H92        24.9921    3.8596   -3.7002 H         1 UNK         0.0819 
     93 H93        24.4351    3.2622   -5.2547 H         1 UNK         0.0819 
     94 H94        23.6127    0.9214   -5.2531 H         1 UNK         0.3041 
     95 H95        22.5336   -1.3426   -5.1840 H         1 UNK         0.0784 
     96 H96        24.0188   -0.5763   -7.0120 H         1 UNK         0.0793 
     97 H97        25.2509   -1.7429   -6.5654 H         1 UNK         0.0793 
     98 H98        23.7111   -2.2897   -7.2251 H         1 UNK         0.0793 
     99 H99        24.5904   -3.4634   -4.8524 H         1 UNK         0.3024 
    100 H100       22.8958   -5.0614   -2.2573 H         1 UNK         0.1171 
    101 H101       22.6655   -6.0599   -5.1513 H         1 UNK         0.0786 
    102 H102       21.3341   -5.8855   -4.0166 H         1 UNK         0.0786 
    103 H103       22.5936   -7.0677   -3.7046 H         1 UNK         0.0786 
    104 H104       24.9378   -5.7678   -4.2481 H         1 UNK         0.2977 
    105 H105       28.0952    2.2980   -5.8640 H         1 UNK         0.3127 
    106 H106       30.2706    3.6848   -7.0264 H         1 UNK         0.0770 
    107 H107       28.0338    5.5133   -5.9613 H         1 UNK         0.0814 
    108 H108       29.2323    5.9981   -7.1539 H         1 UNK         0.0814 
    109 H109       29.7399    5.5942   -5.5268 H         1 UNK         0.0814 
    110 H110       26.7290    3.2395   -6.8128 H         1 UNK         0.2983 
    111 H111       26.0674    3.6773   -9.5304 H         1 UNK         0.0947 
    112 H112       23.9480    2.4958   -8.9029 H         1 UNK         0.0806 
    113 H113       24.3920    3.6913   -7.6985 H         1 UNK         0.0806 
    114 H114       24.6756    1.9746   -7.3903 H         1 UNK         0.0806 
    115 H115       27.4361    0.8854   -7.9385 H         1 UNK         0.3000 
    116 H116       27.0445   -1.0384  -10.0483 H         1 UNK         0.0850 
    117 H117       29.0938   -0.9131   -7.7681 H         1 UNK         0.0810 
    118 H118       27.5175   -1.7037   -7.7057 H         1 UNK         0.0810 
    119 H119       28.7702   -2.3247   -8.7636 H         1 UNK         0.0810 
    120 H120       28.9514    1.7649  -10.0213 H         1 UNK         0.3040 
    121 H121       30.3945    2.6981  -11.3332 H         1 UNK         0.0766 
    122 H122       29.1611    1.7494  -13.2618 H         1 UNK         0.0812 
    123 H123       30.1744    0.3082  -13.2383 H         1 UNK         0.0812 
    124 H124       30.8781    1.8726  -13.6087 H         1 UNK         0.0812 
    125 H125       31.2795   -0.7563  -11.2017 H         1 UNK         0.3205 
    126 H126       34.1184   -0.4039  -11.2648 H         1 UNK         0.0754 
    127 H127       33.0133   -2.5621  -11.8091 H         1 UNK         0.0769 
    128 H128       32.4295   -2.7137  -10.1516 H         1 UNK         0.0769 
    129 H129       34.1535   -2.7884  -10.4929 H         1 UNK         0.0769 
    130 H130       31.8004   -0.2676   -8.6244 H         1 UNK         0.2981 
    131 H131       33.8306   -0.1768   -6.5252 H         1 UNK         0.0541 
    132 H132       32.9502    2.2311   -8.7828 H         1 UNK         0.3459 
    133 H133       33.2879    3.5883   -7.7398 H         1 UNK         0.3459 
    134 H134       31.8869    0.1602   -4.9854 H         1 UNK         0.0612 
    135 H135       30.8085    0.2268   -6.3513 H         1 UNK         0.0612 
    136 H136       33.4187   -1.7054   -4.4183 H         1 UNK         0.0624 
    137 H137       33.1818   -3.3825   -4.8215 H         1 UNK         0.0624 
@<TRIPOS>BOND
     1    1    2 1    
     2    1   72 1    
     3    1   73 1    
     4    1   74 1    
     5    2    3 2    
     6    2    4 am   BACKBONE|DICT|INTERRES
     7    4    5 1    
     8    4   75 1    
     9    5    6 1    
    10    5   35 1    
    11    5   76 1    
    12    6    7 1    
    13    6   77 1    
    14    6   78 1    
    15    7    8 1    
    16    8    9 1    
    17    8   79 1    
    18    8   80 1    
    19    9   10 ar   
    20    9   14 ar   
    21   10   11 ar   
    22   10   81 1    
    23   11   12 ar   
    24   11   71 1    
    25   12   13 ar   
    26   12   82 1    
    27   13   14 ar   
    28   13   15 1    
    29   14   83 1    
    30   15   16 1    
    31   15   84 1    
    32   15   85 1    
    33   16   17 1    
    34   17   18 1    
    35   17   86 1    
    36   17   87 1    
    37   18   19 1    
    38   18   37 1    
    39   18   88 1    
    40   19   20 am   BACKBONE|DICT|INTERRES
    41   19   89 1    
    42   20   21 2    
    43   20   22 1    
    44   22   23 1    
    45   22   24 1    
    46   22   90 1    
    47   23   91 1    
    48   23   92 1    
    49   23   93 1    
    50   24   25 am   BACKBONE|DICT|INTERRES
    51   24   94 1    
    52   25   26 2    
    53   25   27 1    
    54   27   28 1    
    55   27   29 1    
    56   27   95 1    
    57   28   96 1    
    58   28   97 1    
    59   28   98 1    
    60   29   30 am   BACKBONE|DICT|INTERRES
    61   29   99 1    
    62   30   31 2    
    63   30   32 1    
    64   32   33 1    
    65   32   34 1    
    66   32  100 1    
    67   33  101 1    
    68   33  102 1    
    69   33  103 1    
    70   34   35 am   BACKBONE|DICT|INTERRES
    71   34  104 1    
    72   35   36 2    
    73   37   38 2    
    74   37   39 am   BACKBONE|DICT|INTERRES
    75   39   40 1    
    76   39  105 1    
    77   40   41 1    
    78   40   42 1    
    79   40  106 1    
    80   41  107 1    
    81   41  108 1    
    82   41  109 1    
    83   42   43 2    
    84   42   44 am   BACKBONE|DICT|INTERRES
    85   44   45 1    
    86   44  110 1    
    87   45   46 1    
    88   45   47 1    
    89   45  111 1    
    90   46  112 1    
    91   46  113 1    
    92   46  114 1    
    93   47   48 2    
    94   47   49 am   BACKBONE|DICT|INTERRES
    95   49   50 1    
    96   49  115 1    
    97   50   51 1    
    98   50   52 1    
    99   50  116 1    
   100   51  117 1    
   101   51  118 1    
   102   51  119 1    
   103   52   53 2    
   104   52   54 am   BACKBONE|DICT|INTERRES
   105   54   55 1    
   106   54  120 1    
   107   55   56 1    
   108   55   57 1    
   109   55  121 1    
   110   56  122 1    
   111   56  123 1    
   112   56  124 1    
   113   57   58 2    
   114   57   59 am   BACKBONE|DICT|INTERRES
   115   59   60 1    
   116   59  125 1    
   117   60   61 1    
   118   60   62 1    
   119   60  126 1    
   120   61  127 1    
   121   61  128 1    
   122   61  129 1    
   123   62   63 2    
   124   62   64 am   BACKBONE|DICT|INTERRES
   125   64   65 1    
   126   64  130 1    
   127   65   66 1    
   128   65   69 1    
   129   65  131 1    
   130   66   67 am   BACKBONE|DICT|INTERRES
   131   66   68 2    
   132   67  132 1    
   133   67  133 1    
   134   69   70 1    
   135   69  134 1    
   136   69  135 1    
   137   70   71 1    
   138   71  136 1    
   139   71  137 1    
@<TRIPOS>SUBSTRUCTURE
     1 UNK         1 GROUP             0       ****    0 ROOT    
