@<TRIPOS>MOLECULE
3R137
137   139    1
SMALL
USER_CHARGES


@<TRIPOS>ATOM
      1 CA         26.5860   -6.5805    1.8713 C.3       0 UNK        -0.2020 
      2 C          26.9749   -5.4456    0.9362 C.2       0 UNK         0.4855 
      3 O          26.9661   -5.6288   -0.2817 O.2       0 UNK        -0.5197 
      4 N          27.3053   -4.2722    1.4954 N.am      1 UNK        -0.4892 
      5 CA         27.7134   -3.0335    0.8132 C.3       1 UNK         0.0835 
      6 C6         28.9566   -3.2250   -0.0973 C.3       12 UNK        -0.0855 
      7 S7         29.9056   -1.6916   -0.3802 S.3       12 UNK        -0.2931 
      8 C8         29.2747   -1.1316   -1.9944 C.3       12 UNK         0.0378 
      9 C9         29.8010   -1.9640   -3.1548 C.ar      12 UNK        -0.0802 
     10 C10        31.0053   -1.6265   -3.7812 C.ar      12 UNK        -0.0944 
     11 C11        31.4818   -2.3850   -4.8561 C.ar      12 UNK        -0.0787 
     12 C12        30.7502   -3.4930   -5.2942 C.ar      12 UNK        -0.0862 
     13 C13        29.5432   -3.8357   -4.6802 C.ar      12 UNK        -0.0733 
     14 C14        29.0698   -3.0606   -3.6186 C.ar      12 UNK        -0.0832 
     15 C15        28.7679   -5.0580   -5.1491 C.3       12 UNK         0.0240 
     16 S16        27.7193   -4.6962   -6.5914 S.3       12 UNK        -0.2522 
     17 C17        26.3905   -3.7011   -5.8371 C.3       12 UNK        -0.0967 
     18 CA         26.0787   -2.4018   -6.6144 C.3       5 UNK         0.0660 
     19 N          24.8092   -1.8304   -6.1679 N.am      5 UNK        -0.4015 
     20 C          23.9798   -1.1088   -6.9326 C.2       4 UNK         0.4946 
     21 O          24.1564   -0.9007   -8.1328 O.2       4 UNK        -0.5353 
     22 CA         22.7459   -0.5055   -6.2371 C.3       4 UNK         0.0277 
     23 CB         21.5455   -1.4593   -6.3480 C.3       4 UNK        -0.1981 
     24 N          22.9841   -0.1838   -4.8265 N.am      4 UNK        -0.4209 
     25 C          23.8055    0.7880   -4.4039 C.2       3 UNK         0.4942 
     26 O          24.3991    1.5553   -5.1607 O.2       3 UNK        -0.5208 
     27 CA         24.0309    0.9013   -2.8857 C.3       3 UNK         0.0250 
     28 CB         23.0116    1.8695   -2.2646 C.3       3 UNK        -0.1990 
     29 N          23.9884   -0.3793   -2.1685 N.am      3 UNK        -0.4232 
     30 C          24.8195   -1.4113   -2.3734 C.2       2 UNK         0.4993 
     31 O          25.6784   -1.4388   -3.2579 O.2       2 UNK        -0.5286 
     32 CA         24.6166   -2.6469   -1.4815 C.3       2 UNK         0.0209 
     33 CB         24.0917   -3.8255   -2.3179 C.3       2 UNK        -0.1931 
     34 N          25.8377   -3.0632   -0.7866 N.am      2 UNK        -0.4546 
     35 C          26.5300   -2.3363    0.1014 C.2       1 UNK         0.5154 
     36 O          26.2339   -1.1819    0.4136 O.2       1 UNK        -0.5181 
     37 C          27.1998   -1.3428   -6.5322 C.2       5 UNK         0.5014 
     38 O          28.0188   -1.2612   -7.4469 O.2       5 UNK        -0.5248 
     39 N          27.1698   -0.4907   -5.4933 N.am      6 UNK        -0.4434 
     40 CA         28.0724    0.6536   -5.2991 C.3       6 UNK         0.0363 
     41 CB         27.7146    1.3741   -3.9882 C.3       6 UNK        -0.1936 
     42 C          28.0598    1.6775   -6.4507 C.2       6 UNK         0.5081 
     43 O          29.0369    2.4026   -6.6202 O.2       6 UNK        -0.5248 
     44 N          26.9598    1.7256   -7.2130 N.am      7 UNK        -0.4718 
     45 CA         26.7787    2.5691   -8.3952 C.3       7 UNK         0.0273 
     46 CB         25.2766    2.6306   -8.7211 C.3       7 UNK        -0.1935 
     47 C          27.5876    2.1193   -9.6309 C.2       7 UNK         0.5018 
     48 O          27.5974    2.8506  -10.6233 O.2       7 UNK        -0.5186 
     49 N          28.2212    0.9372   -9.5824 N.am      8 UNK        -0.4240 
     50 CA         29.0625    0.3929  -10.6523 C.3       8 UNK         0.0235 
     51 CB         29.4024   -1.0709  -10.3231 C.3       8 UNK        -0.2000 
     52 C          30.3555    1.1986  -10.8803 C.2       8 UNK         0.4941 
     53 O          30.7890    1.9579  -10.0083 O.2       8 UNK        -0.5273 
     54 N          30.9738    0.9787  -12.0497 N.am      9 UNK        -0.4262 
     55 CA         32.2842    1.5201  -12.4217 C.3       9 UNK         0.0264 
     56 CB         32.6178    1.1004  -13.8624 C.3       9 UNK        -0.1955 
     57 C          33.3854    1.0530  -11.4542 C.2       9 UNK         0.5031 
     58 O          33.3446   -0.0898  -10.9925 O.2       9 UNK        -0.5390 
     59 N          34.3212    1.9584  -11.1411 N.am      10 UNK        -0.4204 
     60 CA         35.3943    1.8552  -10.1385 C.3       10 UNK         0.0237 
     61 CB         36.3280    0.6564  -10.4014 C.3       10 UNK        -0.1985 
     62 C          34.8985    1.8737   -8.6784 C.2       10 UNK         0.4970 
     63 O          35.5629    2.4836   -7.8394 O.2       10 UNK        -0.4914 
     64 N          33.7519    1.2430   -8.3965 N.am      11 UNK        -0.4285 
     65 CA         33.0558    1.2978   -7.1021 C.3       11 UNK         0.1007 
     66 C          32.5039    2.7123   -6.7757 C.2       11 UNK         0.5703 
     67 N          31.9287    3.4178   -7.7421 N.am      11 UNK        -0.7361 
     68 O          32.6248    3.1792   -5.6454 O.2       11 UNK        -0.4986 
     69 C69        31.9369    0.2308   -6.9881 C.3       12 UNK        -0.0947 
     70 S70        32.5602   -1.4628   -7.2462 S.3       12 UNK        -0.2240 
     71 C71        32.7987   -2.0315   -5.5330 C.3       12 UNK         0.0194 
     72 H72        27.2529   -7.4299    1.7262 H         1 UNK         0.0906 
     73 H73        25.5679   -6.9070    1.6608 H         1 UNK         0.0906 
     74 H74        26.6377   -6.2841    2.9188 H         1 UNK         0.0906 
     75 H75        27.2570   -4.1936    2.5028 H         1 UNK         0.3140 
     76 H76        28.0104   -2.3643    1.6231 H         1 UNK         0.1085 
     77 H77        28.6917   -3.7056   -1.0360 H         1 UNK         0.0836 
     78 H78        29.6482   -3.9177    0.3848 H         1 UNK         0.0836 
     79 H79        28.1848   -1.1467   -1.9833 H         1 UNK         0.0731 
     80 H80        29.5650   -0.0894   -2.1334 H         1 UNK         0.0731 
     81 H81        31.5708   -0.7743   -3.4299 H         1 UNK         0.1312 
     82 H82        31.1194   -4.0856   -6.1202 H         1 UNK         0.1406 
     83 H83        28.1309   -3.3129   -3.1467 H         1 UNK         0.1631 
     84 H84        28.1534   -5.4593   -4.3413 H         1 UNK         0.0717 
     85 H85        29.4679   -5.8509   -5.4170 H         1 UNK         0.0717 
     86 H86        25.5031   -4.3360   -5.8187 H         1 UNK         0.0934 
     87 H87        26.6084   -3.4818   -4.7936 H         1 UNK         0.0934 
     88 H88        25.9728   -2.6713   -7.6680 H         1 UNK         0.0739 
     89 H89        24.6159   -1.9015   -5.1783 H         1 UNK         0.3093 
     90 H90        22.4965    0.4216   -6.7582 H         1 UNK         0.0818 
     91 H91        21.3324   -1.6968   -7.3914 H         1 UNK         0.0819 
     92 H92        21.7262   -2.4022   -5.8302 H         1 UNK         0.0819 
     93 H93        20.6433   -1.0127   -5.9295 H         1 UNK         0.0819 
     94 H94        22.5161   -0.7533   -4.1365 H         1 UNK         0.3041 
     95 H95        25.0265    1.3208   -2.7344 H         1 UNK         0.0784 
     96 H96        23.0406    2.8393   -2.7637 H         1 UNK         0.0793 
     97 H97        21.9916    1.4917   -2.3459 H         1 UNK         0.0793 
     98 H98        23.2225    2.0455   -1.2095 H         1 UNK         0.0793 
     99 H99        23.3070   -0.4483   -1.4260 H         1 UNK         0.3024 
    100 H100       23.8735   -2.4114   -0.7166 H         1 UNK         0.1171 
    101 H101       24.8177   -4.1436   -3.0670 H         1 UNK         0.0786 
    102 H102       23.8644   -4.6867   -1.6889 H         1 UNK         0.0786 
    103 H103       23.1737   -3.5589   -2.8433 H         1 UNK         0.0786 
    104 H104       26.1474   -4.0210   -0.9283 H         1 UNK         0.2977 
    105 H105       26.5093   -0.6755   -4.7419 H         1 UNK         0.3127 
    106 H106       29.0829    0.2499   -5.2162 H         1 UNK         0.0770 
    107 H107       28.5362    2.0150   -3.6664 H         1 UNK         0.0814 
    108 H108       26.8402    2.0138   -4.1089 H         1 UNK         0.0814 
    109 H109       27.5000    0.6808   -3.1787 H         1 UNK         0.0814 
    110 H110       26.1869    1.1249   -6.9605 H         1 UNK         0.2983 
    111 H111       27.1168    3.5768   -8.1444 H         1 UNK         0.0947 
    112 H112       24.8855    1.6507   -8.9977 H         1 UNK         0.0806 
    113 H113       25.0830    3.3065   -9.5550 H         1 UNK         0.0806 
    114 H114       24.6995    2.9935   -7.8700 H         1 UNK         0.0806 
    115 H115       28.1676    0.3899   -8.7296 H         1 UNK         0.3000 
    116 H116       28.4801    0.4178  -11.5757 H         1 UNK         0.0850 
    117 H117       29.9866   -1.5345  -11.1187 H         1 UNK         0.0810 
    118 H118       28.5004   -1.6696  -10.1948 H         1 UNK         0.0810 
    119 H119       29.9873   -1.1489   -9.4051 H         1 UNK         0.0810 
    120 H120       30.5680    0.3135  -12.6914 H         1 UNK         0.3040 
    121 H121       32.2133    2.6091  -12.3801 H         1 UNK         0.0766 
    122 H122       32.6824    0.0159  -13.9613 H         1 UNK         0.0812 
    123 H123       33.5772    1.5130  -14.1776 H         1 UNK         0.0812 
    124 H124       31.8663    1.4588  -14.5662 H         1 UNK         0.0812 
    125 H125       34.2413    2.8701  -11.5717 H         1 UNK         0.3205 
    126 H126       35.9917    2.7594  -10.2679 H         1 UNK         0.0754 
    127 H127       37.1926    0.6878   -9.7372 H         1 UNK         0.0769 
    128 H128       36.7044    0.6628  -11.4244 H         1 UNK         0.0769 
    129 H129       35.8296   -0.2984  -10.2321 H         1 UNK         0.0769 
    130 H130       33.2893    0.7314   -9.1397 H         1 UNK         0.2981 
    131 H131       33.7976    1.0682   -6.3345 H         1 UNK         0.0541 
    132 H132       31.5596    4.3299   -7.5313 H         1 UNK         0.3459 
    133 H133       31.7029    2.9715   -8.6267 H         1 UNK         0.3459 
    134 H134       31.1540    0.4177   -7.7252 H         1 UNK         0.0612 
    135 H135       31.4494    0.2882   -6.0139 H         1 UNK         0.0612 
    136 H136       33.3398   -1.2692   -4.9703 H         1 UNK         0.0624 
    137 H137       33.4383   -2.9150   -5.5450 H         1 UNK         0.0624 
@<TRIPOS>BOND
     1    1    2 1    
     2    1   72 1    
     3    1   73 1    
     4    1   74 1    
     5    2    3 2    
     6    2    4 am   BACKBONE|DICT|INTERRES
     7    4    5 1    
     8    4   75 1    
     9    5    6 1    
    10    5   35 1    
    11    5   76 1    
    12    6    7 1    
    13    6   77 1    
    14    6   78 1    
    15    7    8 1    
    16    8    9 1    
    17    8   79 1    
    18    8   80 1    
    19    9   10 ar   
    20    9   14 ar   
    21   10   11 ar   
    22   10   81 1    
    23   11   12 ar   
    24   11   71 1    
    25   12   13 ar   
    26   12   82 1    
    27   13   14 ar   
    28   13   15 1    
    29   14   83 1    
    30   15   16 1    
    31   15   84 1    
    32   15   85 1    
    33   16   17 1    
    34   17   18 1    
    35   17   86 1    
    36   17   87 1    
    37   18   19 1    
    38   18   37 1    
    39   18   88 1    
    40   19   20 am   BACKBONE|DICT|INTERRES
    41   19   89 1    
    42   20   21 2    
    43   20   22 1    
    44   22   23 1    
    45   22   24 1    
    46   22   90 1    
    47   23   91 1    
    48   23   92 1    
    49   23   93 1    
    50   24   25 am   BACKBONE|DICT|INTERRES
    51   24   94 1    
    52   25   26 2    
    53   25   27 1    
    54   27   28 1    
    55   27   29 1    
    56   27   95 1    
    57   28   96 1    
    58   28   97 1    
    59   28   98 1    
    60   29   30 am   BACKBONE|DICT|INTERRES
    61   29   99 1    
    62   30   31 2    
    63   30   32 1    
    64   32   33 1    
    65   32   34 1    
    66   32  100 1    
    67   33  101 1    
    68   33  102 1    
    69   33  103 1    
    70   34   35 am   BACKBONE|DICT|INTERRES
    71   34  104 1    
    72   35   36 2    
    73   37   38 2    
    74   37   39 am   BACKBONE|DICT|INTERRES
    75   39   40 1    
    76   39  105 1    
    77   40   41 1    
    78   40   42 1    
    79   40  106 1    
    80   41  107 1    
    81   41  108 1    
    82   41  109 1    
    83   42   43 2    
    84   42   44 am   BACKBONE|DICT|INTERRES
    85   44   45 1    
    86   44  110 1    
    87   45   46 1    
    88   45   47 1    
    89   45  111 1    
    90   46  112 1    
    91   46  113 1    
    92   46  114 1    
    93   47   48 2    
    94   47   49 am   BACKBONE|DICT|INTERRES
    95   49   50 1    
    96   49  115 1    
    97   50   51 1    
    98   50   52 1    
    99   50  116 1    
   100   51  117 1    
   101   51  118 1    
   102   51  119 1    
   103   52   53 2    
   104   52   54 am   BACKBONE|DICT|INTERRES
   105   54   55 1    
   106   54  120 1    
   107   55   56 1    
   108   55   57 1    
   109   55  121 1    
   110   56  122 1    
   111   56  123 1    
   112   56  124 1    
   113   57   58 2    
   114   57   59 am   BACKBONE|DICT|INTERRES
   115   59   60 1    
   116   59  125 1    
   117   60   61 1    
   118   60   62 1    
   119   60  126 1    
   120   61  127 1    
   121   61  128 1    
   122   61  129 1    
   123   62   63 2    
   124   62   64 am   BACKBONE|DICT|INTERRES
   125   64   65 1    
   126   64  130 1    
   127   65   66 1    
   128   65   69 1    
   129   65  131 1    
   130   66   67 am   BACKBONE|DICT|INTERRES
   131   66   68 2    
   132   67  132 1    
   133   67  133 1    
   134   69   70 1    
   135   69  134 1    
   136   69  135 1    
   137   70   71 1    
   138   71  136 1    
   139   71  137 1    
@<TRIPOS>SUBSTRUCTURE
     1 UNK         1 GROUP             0       ****    0 ROOT    
