@<TRIPOS>MOLECULE
3R137
137   139    1
SMALL
USER_CHARGES


@<TRIPOS>ATOM
      1 CA         25.3916   -6.0466   -6.1832 C.3       0 UNK        -0.2020 
      2 C          25.4708   -5.4560   -4.7843 C.2       0 UNK         0.4855 
      3 O          24.4518   -5.0197   -4.2475 O.2       0 UNK        -0.5197 
      4 N          26.6735   -5.4296   -4.1938 N.am      1 UNK        -0.4892 
      5 CA         26.9633   -4.8646   -2.8708 C.3       1 UNK         0.0835 
      6 C6         28.4292   -5.1226   -2.4227 C.3       12 UNK        -0.0855 
      7 S7         29.7019   -4.7493   -3.6860 S.3       12 UNK        -0.2931 
      8 C8         31.1821   -4.4357   -2.6667 C.3       12 UNK         0.0378 
      9 C9         31.5718   -2.9617   -2.6461 C.ar      12 UNK        -0.0802 
     10 C10        32.7056   -2.5190   -3.3405 C.ar      12 UNK        -0.0944 
     11 C11        33.0831   -1.1714   -3.3075 C.ar      12 UNK        -0.0787 
     12 C12        32.3235   -0.2698   -2.5570 C.ar      12 UNK        -0.0862 
     13 C13        31.1791   -0.6927   -1.8765 C.ar      12 UNK        -0.0733 
     14 C14        30.8107   -2.0413   -1.9189 C.ar      12 UNK        -0.0832 
     15 C15        30.3486    0.3153   -1.0959 C.3       12 UNK         0.0240 
     16 S16        29.5325    1.5209   -2.1921 S.3       12 UNK        -0.2522 
     17 C17        28.2697    0.4900   -3.0086 C.3       12 UNK        -0.0967 
     18 CA         28.1673    0.7385   -4.5346 C.3       5 UNK         0.0660 
     19 N          27.4709   -0.3561   -5.2129 N.am      5 UNK        -0.4015 
     20 C          27.3417   -0.5089   -6.5378 C.2       4 UNK         0.4946 
     21 O          27.9293    0.1847   -7.3682 O.2       4 UNK        -0.5353 
     22 CA         26.3874   -1.6116   -7.0277 C.3       4 UNK         0.0277 
     23 CB         27.1244   -2.9372   -7.2676 C.3       4 UNK        -0.1981 
     24 N          25.2674   -1.8280   -6.1104 N.am      4 UNK        -0.4209 
     25 C          24.2481   -0.9718   -5.9575 C.2       3 UNK         0.4942 
     26 O          24.1250    0.0682   -6.6042 O.2       3 UNK        -0.5208 
     27 CA         23.2202   -1.3158   -4.8678 C.3       3 UNK         0.0250 
     28 CB         22.2280   -2.3777   -5.3677 C.3       3 UNK        -0.1990 
     29 N          23.8551   -1.7713   -3.6275 N.am      3 UNK        -0.4232 
     30 C          24.5888   -0.9795   -2.8313 C.2       2 UNK         0.4993 
     31 O          24.7816    0.2161   -3.0512 O.2       2 UNK        -0.5286 
     32 CA         25.2626   -1.6299   -1.6086 C.3       2 UNK         0.0209 
     33 CB         24.3114   -1.6118   -0.4016 C.3       2 UNK        -0.1931 
     34 N          25.7443   -2.9984   -1.8317 N.am      2 UNK        -0.4546 
     35 C          26.5899   -3.3708   -2.8035 C.2       1 UNK         0.5154 
     36 O          27.0408   -2.5947   -3.6459 O.2       1 UNK        -0.5181 
     37 C          27.4950    2.0896   -4.8496 C.2       5 UNK         0.5014 
     38 O          28.1739    3.0097   -5.3056 O.2       5 UNK        -0.5248 
     39 N          26.1683    2.1688   -4.6551 N.am      6 UNK        -0.4434 
     40 CA         25.3434    3.3429   -4.9620 C.3       6 UNK         0.0363 
     41 CB         23.9041    3.1008   -4.4812 C.3       6 UNK        -0.1936 
     42 C          25.3584    3.7299   -6.4515 C.2       6 UNK         0.5081 
     43 O          25.3597    4.9197   -6.7677 O.2       6 UNK        -0.5248 
     44 N          25.4067    2.7251   -7.3363 N.am      7 UNK        -0.4718 
     45 CA         25.5674    2.8946   -8.7833 C.3       7 UNK         0.0273 
     46 CB         25.1416    1.5929   -9.4827 C.3       7 UNK        -0.1935 
     47 C          26.9971    3.2824   -9.2130 C.2       7 UNK         0.5018 
     48 O          27.1840    3.6393  -10.3769 O.2       7 UNK        -0.5186 
     49 N          27.9741    3.1762   -8.2968 N.am      8 UNK        -0.4240 
     50 CA         29.4203    3.3421   -8.4998 C.3       8 UNK         0.0235 
     51 CB         29.7666    4.8034   -8.8559 C.3       8 UNK        -0.2000 
     52 C          30.0085    2.3205   -9.4956 C.2       8 UNK         0.4941 
     53 O          30.9641    2.6327  -10.2086 O.2       8 UNK        -0.5273 
     54 N          29.4200    1.1189   -9.5256 N.am      9 UNK        -0.4262 
     55 CA         29.7677    0.0216  -10.4262 C.3       9 UNK         0.0264 
     56 CB         28.4682   -0.5813  -10.9858 C.3       9 UNK        -0.1955 
     57 C          30.5904   -1.0680   -9.7235 C.2       9 UNK         0.5031 
     58 O          31.3571   -1.7580  -10.3968 O.2       9 UNK        -0.5390 
     59 N          30.4172   -1.2166   -8.4001 N.am      10 UNK        -0.4204 
     60 CA         31.0206   -2.2765   -7.5812 C.3       10 UNK         0.0237 
     61 CB         30.5654   -2.1258   -6.1219 C.3       10 UNK        -0.1985 
     62 C          32.5553   -2.3255   -7.6120 C.2       10 UNK         0.4970 
     63 O          33.1288   -3.4153   -7.5880 O.2       10 UNK        -0.4914 
     64 N          33.1799   -1.1450   -7.6259 N.am      11 UNK        -0.4285 
     65 CA         34.6306   -0.9684   -7.4762 C.3       11 UNK         0.1007 
     66 C          35.4257   -1.0609   -8.8104 C.2       11 UNK         0.5703 
     67 N          34.7867   -1.2834   -9.9538 N.am      11 UNK        -0.7361 
     68 O          36.6486   -0.9404   -8.8071 O.2       11 UNK        -0.4986 
     69 C69        34.9786    0.3183   -6.6726 C.3       12 UNK        -0.0947 
     70 S70        33.8748    0.6438   -5.2505 S.3       12 UNK        -0.2240 
     71 C71        34.3068   -0.6864   -4.0788 C.3       12 UNK         0.0194 
     72 H72        24.8564   -6.9954   -6.1582 H         1 UNK         0.0906 
     73 H73        24.8528   -5.3709   -6.8468 H         1 UNK         0.0906 
     74 H74        26.3799   -6.2226   -6.6077 H         1 UNK         0.0906 
     75 H75        27.4872   -5.7592   -4.6945 H         1 UNK         0.3140 
     76 H76        26.3164   -5.3928   -2.1668 H         1 UNK         0.1085 
     77 H77        28.5392   -6.1762   -2.1609 H         1 UNK         0.0836 
     78 H78        28.6488   -4.5734   -1.5051 H         1 UNK         0.0836 
     79 H79        32.0020   -5.0349   -3.0655 H         1 UNK         0.0731 
     80 H80        31.0266   -4.7891   -1.6465 H         1 UNK         0.0731 
     81 H81        33.2912   -3.2248   -3.9137 H         1 UNK         0.1312 
     82 H82        32.6080    0.7733   -2.5248 H         1 UNK         0.1406 
     83 H83        29.9290   -2.3775   -1.3911 H         1 UNK         0.1631 
     84 H84        30.9994    0.8528   -0.4048 H         1 UNK         0.0717 
     85 H85        29.5960   -0.1834   -0.4830 H         1 UNK         0.0717 
     86 H86        28.5136   -0.5572   -2.8296 H         1 UNK         0.0934 
     87 H87        27.3158    0.6628   -2.5107 H         1 UNK         0.0934 
     88 H88        29.1791    0.7648   -4.9453 H         1 UNK         0.0739 
     89 H89        27.0707   -1.0741   -4.6116 H         1 UNK         0.3093 
     90 H90        25.9812   -1.2824   -7.9859 H         1 UNK         0.0818 
     91 H91        26.4727   -3.6652   -7.7497 H         1 UNK         0.0819 
     92 H92        27.9819   -2.7964   -7.9262 H         1 UNK         0.0819 
     93 H93        27.4866   -3.3764   -6.3375 H         1 UNK         0.0819 
     94 H94        25.3233   -2.6268   -5.4942 H         1 UNK         0.3041 
     95 H95        22.6588   -0.4057   -4.6448 H         1 UNK         0.0784 
     96 H96        21.7283   -2.0451   -6.2786 H         1 UNK         0.0793 
     97 H97        22.7225   -3.3232   -5.5940 H         1 UNK         0.0793 
     98 H98        21.4524   -2.5747   -4.6274 H         1 UNK         0.0793 
     99 H99        23.7785   -2.7548   -3.4022 H         1 UNK         0.3024 
    100 H100       26.1329   -1.0211   -1.3586 H         1 UNK         0.1171 
    101 H101       24.8096   -1.9614    0.5029 H         1 UNK         0.0786 
    102 H102       23.9548   -0.6003   -0.2010 H         1 UNK         0.0786 
    103 H103       23.4348   -2.2393   -0.5675 H         1 UNK         0.0786 
    104 H104       25.3987   -3.7016   -1.1942 H         1 UNK         0.2977 
    105 H105       25.6838    1.3780   -4.2341 H         1 UNK         0.3127 
    106 H106       25.7534    4.1853   -4.4011 H         1 UNK         0.0770 
    107 H107       23.4515    2.2433   -4.9805 H         1 UNK         0.0814 
    108 H108       23.2731    3.9676   -4.6820 H         1 UNK         0.0814 
    109 H109       23.8706    2.9170   -3.4072 H         1 UNK         0.0814 
    110 H110       25.3157    1.7741   -6.9942 H         1 UNK         0.2983 
    111 H111       24.9011    3.6950   -9.1123 H         1 UNK         0.0947 
    112 H112       25.7989    0.7641   -9.2202 H         1 UNK         0.0806 
    113 H113       25.1744    1.7020  -10.5676 H         1 UNK         0.0806 
    114 H114       24.1226    1.3115   -9.2161 H         1 UNK         0.0806 
    115 H115       27.7108    2.8885   -7.3605 H         1 UNK         0.3000 
    116 H116       29.8842    3.1203   -7.5375 H         1 UNK         0.0850 
    117 H117       30.8461    4.9589   -8.8619 H         1 UNK         0.0810 
    118 H118       29.3444    5.4980   -8.1298 H         1 UNK         0.0810 
    119 H119       29.3939    5.0800   -9.8425 H         1 UNK         0.0810 
    120 H120       28.6816    0.9337   -8.8481 H         1 UNK         0.3040 
    121 H121       30.3588    0.3969  -11.2643 H         1 UNK         0.0766 
    122 H122       28.6817   -1.3950  -11.6803 H         1 UNK         0.0812 
    123 H123       27.8891    0.1655  -11.5295 H         1 UNK         0.0812 
    124 H124       27.8343   -0.9838  -10.1943 H         1 UNK         0.0812 
    125 H125       29.7450   -0.6125   -7.9408 H         1 UNK         0.3205 
    126 H126       30.6554   -3.2331   -7.9601 H         1 UNK         0.0754 
    127 H127       31.0429   -2.8809   -5.4999 H         1 UNK         0.0769 
    128 H128       29.4964   -2.2699   -6.0035 H         1 UNK         0.0769 
    129 H129       30.8257   -1.1516   -5.7057 H         1 UNK         0.0769 
    130 H130       32.6292   -0.3006   -7.6508 H         1 UNK         0.2981 
    131 H131       35.0004   -1.8076   -6.8853 H         1 UNK         0.0541 
    132 H132       35.3138   -1.3462  -10.8102 H         1 UNK         0.3459 
    133 H133       33.7844   -1.4075   -9.9656 H         1 UNK         0.3459 
    134 H134       36.0082    0.2765   -6.3129 H         1 UNK         0.0612 
    135 H135       34.9202    1.1927   -7.3232 H         1 UNK         0.0612 
    136 H136       34.7697   -1.5170   -4.6113 H         1 UNK         0.0624 
    137 H137       35.0545   -0.3142   -3.3774 H         1 UNK         0.0624 
@<TRIPOS>BOND
     1    1    2 1    
     2    1   72 1    
     3    1   73 1    
     4    1   74 1    
     5    2    3 2    
     6    2    4 am   BACKBONE|DICT|INTERRES
     7    4    5 1    
     8    4   75 1    
     9    5    6 1    
    10    5   35 1    
    11    5   76 1    
    12    6    7 1    
    13    6   77 1    
    14    6   78 1    
    15    7    8 1    
    16    8    9 1    
    17    8   79 1    
    18    8   80 1    
    19    9   10 ar   
    20    9   14 ar   
    21   10   11 ar   
    22   10   81 1    
    23   11   12 ar   
    24   11   71 1    
    25   12   13 ar   
    26   12   82 1    
    27   13   14 ar   
    28   13   15 1    
    29   14   83 1    
    30   15   16 1    
    31   15   84 1    
    32   15   85 1    
    33   16   17 1    
    34   17   18 1    
    35   17   86 1    
    36   17   87 1    
    37   18   19 1    
    38   18   37 1    
    39   18   88 1    
    40   19   20 am   BACKBONE|DICT|INTERRES
    41   19   89 1    
    42   20   21 2    
    43   20   22 1    
    44   22   23 1    
    45   22   24 1    
    46   22   90 1    
    47   23   91 1    
    48   23   92 1    
    49   23   93 1    
    50   24   25 am   BACKBONE|DICT|INTERRES
    51   24   94 1    
    52   25   26 2    
    53   25   27 1    
    54   27   28 1    
    55   27   29 1    
    56   27   95 1    
    57   28   96 1    
    58   28   97 1    
    59   28   98 1    
    60   29   30 am   BACKBONE|DICT|INTERRES
    61   29   99 1    
    62   30   31 2    
    63   30   32 1    
    64   32   33 1    
    65   32   34 1    
    66   32  100 1    
    67   33  101 1    
    68   33  102 1    
    69   33  103 1    
    70   34   35 am   BACKBONE|DICT|INTERRES
    71   34  104 1    
    72   35   36 2    
    73   37   38 2    
    74   37   39 am   BACKBONE|DICT|INTERRES
    75   39   40 1    
    76   39  105 1    
    77   40   41 1    
    78   40   42 1    
    79   40  106 1    
    80   41  107 1    
    81   41  108 1    
    82   41  109 1    
    83   42   43 2    
    84   42   44 am   BACKBONE|DICT|INTERRES
    85   44   45 1    
    86   44  110 1    
    87   45   46 1    
    88   45   47 1    
    89   45  111 1    
    90   46  112 1    
    91   46  113 1    
    92   46  114 1    
    93   47   48 2    
    94   47   49 am   BACKBONE|DICT|INTERRES
    95   49   50 1    
    96   49  115 1    
    97   50   51 1    
    98   50   52 1    
    99   50  116 1    
   100   51  117 1    
   101   51  118 1    
   102   51  119 1    
   103   52   53 2    
   104   52   54 am   BACKBONE|DICT|INTERRES
   105   54   55 1    
   106   54  120 1    
   107   55   56 1    
   108   55   57 1    
   109   55  121 1    
   110   56  122 1    
   111   56  123 1    
   112   56  124 1    
   113   57   58 2    
   114   57   59 am   BACKBONE|DICT|INTERRES
   115   59   60 1    
   116   59  125 1    
   117   60   61 1    
   118   60   62 1    
   119   60  126 1    
   120   61  127 1    
   121   61  128 1    
   122   61  129 1    
   123   62   63 2    
   124   62   64 am   BACKBONE|DICT|INTERRES
   125   64   65 1    
   126   64  130 1    
   127   65   66 1    
   128   65   69 1    
   129   65  131 1    
   130   66   67 am   BACKBONE|DICT|INTERRES
   131   66   68 2    
   132   67  132 1    
   133   67  133 1    
   134   69   70 1    
   135   69  134 1    
   136   69  135 1    
   137   70   71 1    
   138   71  136 1    
   139   71  137 1    
@<TRIPOS>SUBSTRUCTURE
     1 UNK         1 GROUP             0       ****    0 ROOT    
