@<TRIPOS>MOLECULE
3R137
137   139    1
SMALL
USER_CHARGES


@<TRIPOS>ATOM
      1 CA         27.3317   -4.8998    1.3517 C.3       0 UNK        -0.2020 
      2 C          27.4185   -3.8339    0.2706 C.2       0 UNK         0.4855 
      3 O          27.2065   -4.1401   -0.9027 O.2       0 UNK        -0.5197 
      4 N          27.7237   -2.5877    0.6599 N.am      1 UNK        -0.4892 
      5 CA         27.8914   -1.3812   -0.1709 C.3       1 UNK         0.0835 
      6 C6         29.0177   -1.4938   -1.2341 C.3       12 UNK        -0.0855 
      7 S7         30.6783   -1.6374   -0.4867 S.3       12 UNK        -0.2931 
      8 C8         31.0746   -3.4043   -0.6885 C.3       12 UNK         0.0378 
      9 C9         31.2471   -3.7982   -2.1484 C.ar      12 UNK        -0.0802 
     10 C10        32.4228   -3.4788   -2.8346 C.ar      12 UNK        -0.0944 
     11 C11        32.5864   -3.8475   -4.1743 C.ar      12 UNK        -0.0787 
     12 C12        31.5679   -4.5571   -4.8198 C.ar      12 UNK        -0.0862 
     13 C13        30.3734   -4.8492   -4.1537 C.ar      12 UNK        -0.0733 
     14 C14        30.2281   -4.4843   -2.8135 C.ar      12 UNK        -0.0832 
     15 C15        29.2138   -5.5107   -4.8879 C.3       12 UNK         0.0240 
     16 S16        28.6151   -4.5293   -6.3079 S.3       12 UNK        -0.2522 
     17 C17        28.6675   -2.8179   -5.6732 C.3       12 UNK        -0.0967 
     18 CA         28.0491   -1.8218   -6.6811 C.3       5 UNK         0.0660 
     19 N          26.5901   -1.8633   -6.6665 N.am      5 UNK        -0.4015 
     20 C          25.8173   -2.1046   -7.7327 C.2       4 UNK         0.4946 
     21 O          26.2478   -2.4535   -8.8323 O.2       4 UNK        -0.5353 
     22 CA         24.2970   -1.9056   -7.5614 C.3       4 UNK         0.0277 
     23 CB         23.6065   -3.2589   -7.3262 C.3       4 UNK        -0.1981 
     24 N          23.9240   -0.9854   -6.4819 N.am      4 UNK        -0.4209 
     25 C          24.3161    0.2921   -6.3672 C.2       3 UNK         0.4942 
     26 O          25.0035    0.8811   -7.2029 O.2       3 UNK        -0.5208 
     27 CA         23.9517    1.0119   -5.0571 C.3       3 UNK         0.0250 
     28 CB         22.6275    1.7736   -5.2198 C.3       3 UNK        -0.1990 
     29 N          23.8784    0.1440   -3.8696 N.am      3 UNK        -0.4232 
     30 C          24.8436   -0.6809   -3.4340 C.2       2 UNK         0.4993 
     31 O          25.8994   -0.8830   -4.0402 O.2       2 UNK        -0.5286 
     32 CA         24.5585   -1.4579   -2.1395 C.3       2 UNK         0.0209 
     33 CB         23.8360   -2.7756   -2.4624 C.3       2 UNK        -0.1931 
     34 N          25.7933   -1.7652   -1.4152 N.am      2 UNK        -0.4546 
     35 C          26.5743   -0.8709   -0.7982 C.2       1 UNK         0.5154 
     36 O          26.2816    0.3213   -0.6931 O.2       1 UNK        -0.5181 
     37 C          28.5406   -0.3881   -6.4113 C.2       5 UNK         0.5014 
     38 O          29.4311    0.0741   -7.1208 O.2       5 UNK        -0.5248 
     39 N          27.9811    0.2850   -5.3946 N.am      6 UNK        -0.4434 
     40 CA         28.4550    1.5778   -4.8903 C.3       6 UNK         0.0363 
     41 CB         27.7639    1.8951   -3.5550 C.3       6 UNK        -0.1936 
     42 C          28.2829    2.7606   -5.8570 C.2       6 UNK         0.5081 
     43 O          29.0755    3.7011   -5.7822 O.2       6 UNK        -0.5248 
     44 N          27.2549    2.7177   -6.7134 N.am      7 UNK        -0.4718 
     45 CA         26.9397    3.7793   -7.6713 C.3       7 UNK         0.0273 
     46 CB         25.5467    4.3523   -7.3575 C.3       7 UNK        -0.1935 
     47 C          27.0023    3.2702   -9.1158 C.2       7 UNK         0.5018 
     48 O          27.5243    3.9753   -9.9798 O.2       7 UNK        -0.5186 
     49 N          26.4620    2.0695   -9.3622 N.am      8 UNK        -0.4240 
     50 CA         26.3368    1.4827  -10.6986 C.3       8 UNK         0.0235 
     51 CB         25.1287    0.5326  -10.7105 C.3       8 UNK        -0.2000 
     52 C          27.6055    0.7716  -11.2090 C.2       8 UNK         0.4941 
     53 O          27.5963    0.3154  -12.3541 O.2       8 UNK        -0.5273 
     54 N          28.6628    0.6774  -10.3922 N.am      9 UNK        -0.4262 
     55 CA         29.9427    0.0678  -10.7537 C.3       9 UNK         0.0264 
     56 CB         29.9825   -1.3879  -10.2488 C.3       9 UNK        -0.1955 
     57 C          31.1012    0.8981  -10.1840 C.2       9 UNK         0.5031 
     58 O          30.8776    1.8677   -9.4539 O.2       9 UNK        -0.5390 
     59 N          32.3313    0.4884  -10.5252 N.am      10 UNK        -0.4204 
     60 CA         33.5916    1.1310  -10.1300 C.3       10 UNK         0.0237 
     61 CB         34.7545    0.4478  -10.8693 C.3       10 UNK        -0.1985 
     62 C          33.8625    1.1569   -8.6128 C.2       10 UNK         0.4970 
     63 O          34.6778    1.9664   -8.1681 O.2       10 UNK        -0.4914 
     64 N          33.1813    0.2926   -7.8503 N.am      11 UNK        -0.4285 
     65 CA         33.1819    0.2885   -6.3797 C.3       11 UNK         0.1007 
     66 C          32.4386    1.5024   -5.7441 C.2       11 UNK         0.5703 
     67 N          31.6720    2.2850   -6.4953 N.am      11 UNK        -0.7361 
     68 O          32.5694    1.7403   -4.5460 O.2       11 UNK        -0.4986 
     69 C69        32.6390   -1.0488   -5.8098 C.3       12 UNK        -0.0947 
     70 S70        33.5180   -2.5175   -6.4479 S.3       12 UNK        -0.2240 
     71 C71        33.8570   -3.4629   -4.9244 C.3       12 UNK         0.0194 
     72 H72        26.3327   -5.3345    1.3694 H         1 UNK         0.0906 
     73 H73        28.0464   -5.6968    1.1485 H         1 UNK         0.0906 
     74 H74        27.5449   -4.4976    2.3419 H         1 UNK         0.0906 
     75 H75        27.8573   -2.4219    1.6483 H         1 UNK         0.3140 
     76 H76        28.1930   -0.5983    0.5277 H         1 UNK         0.1085 
     77 H77        28.8271   -2.3154   -1.9230 H         1 UNK         0.0836 
     78 H78        29.0455   -0.5991   -1.8561 H         1 UNK         0.0836 
     79 H79        31.9981   -3.6182   -0.1487 H         1 UNK         0.0731 
     80 H80        30.3026   -4.0089   -0.2119 H         1 UNK         0.0731 
     81 H81        33.2047   -2.9330   -2.3244 H         1 UNK         0.1312 
     82 H82        31.6817   -4.8341   -5.8591 H         1 UNK         0.1406 
     83 H83        29.3095   -4.7154   -2.2917 H         1 UNK         0.1631 
     84 H84        28.3748   -5.6787   -4.2106 H         1 UNK         0.0717 
     85 H85        29.5251   -6.4944   -5.2414 H         1 UNK         0.0717 
     86 H86        28.1639   -2.7676   -4.7053 H         1 UNK         0.0934 
     87 H87        29.7136   -2.5690   -5.4881 H         1 UNK         0.0934 
     88 H88        28.4160   -2.0810   -7.6756 H         1 UNK         0.0739 
     89 H89        26.1484   -1.5882   -5.7943 H         1 UNK         0.3093 
     90 H90        23.9157   -1.4838   -8.4930 H         1 UNK         0.0818 
     91 H91        22.5218   -3.1536   -7.2979 H         1 UNK         0.0819 
     92 H92        23.8403   -3.9603   -8.1285 H         1 UNK         0.0819 
     93 H93        23.9263   -3.7178   -6.3897 H         1 UNK         0.0819 
     94 H94        23.3659   -1.3721   -5.7351 H         1 UNK         0.3041 
     95 H95        24.7367    1.7462   -4.8727 H         1 UNK         0.0784 
     96 H96        22.6633    2.4398   -6.0833 H         1 UNK         0.0793 
     97 H97        21.7857    1.0956   -5.3660 H         1 UNK         0.0793 
     98 H98        22.4146    2.3918   -4.3475 H         1 UNK         0.0793 
     99 H99        23.0353    0.2247   -3.3187 H         1 UNK         0.3024 
    100 H100       23.9252   -0.8474   -1.4920 H         1 UNK         0.1171 
    101 H101       22.8899   -2.5930   -2.9737 H         1 UNK         0.0786 
    102 H102       23.6088   -3.3351   -1.5547 H         1 UNK         0.0786 
    103 H103       24.4386   -3.4171   -3.1075 H         1 UNK         0.0786 
    104 H104       26.1349   -2.7228   -1.4533 H         1 UNK         0.2977 
    105 H105       27.2405   -0.1613   -4.8529 H         1 UNK         0.3127 
    106 H106       29.5239    1.4733   -4.6946 H         1 UNK         0.0770 
    107 H107       26.6886    2.0220   -3.6719 H         1 UNK         0.0814 
    108 H108       28.1541    2.8179   -3.1235 H         1 UNK         0.0814 
    109 H109       27.9251    1.1067   -2.8239 H         1 UNK         0.0814 
    110 H110       26.6489    1.9044   -6.7190 H         1 UNK         0.2983 
    111 H111       27.6608    4.5960   -7.5931 H         1 UNK         0.0947 
    112 H112       25.2894    5.1532   -8.0519 H         1 UNK         0.0806 
    113 H113       25.5104    4.7714   -6.3520 H         1 UNK         0.0806 
    114 H114       24.7667    3.5939   -7.4313 H         1 UNK         0.0806 
    115 H115       26.0082    1.5691   -8.6011 H         1 UNK         0.3000 
    116 H116       26.1253    2.2864  -11.4075 H         1 UNK         0.0850 
    117 H117       24.9372    0.1518  -11.7145 H         1 UNK         0.0810 
    118 H118       24.2209    1.0346  -10.3752 H         1 UNK         0.0810 
    119 H119       25.2957   -0.3267  -10.0650 H         1 UNK         0.0810 
    120 H120       28.6457    1.1326   -9.4876 H         1 UNK         0.3040 
    121 H121       30.0552    0.0695  -11.8400 H         1 UNK         0.0766 
    122 H122       30.8232   -1.9332  -10.6781 H         1 UNK         0.0812 
    123 H123       29.0769   -1.9307  -10.5212 H         1 UNK         0.0812 
    124 H124       30.0872   -1.4369   -9.1658 H         1 UNK         0.0812 
    125 H125       32.4161   -0.3179  -11.1276 H         1 UNK         0.3205 
    126 H126       33.5420    2.1710  -10.4591 H         1 UNK         0.0754 
    127 H127       35.7060    0.9237  -10.6272 H         1 UNK         0.0769 
    128 H128       34.6312    0.5110  -11.9507 H         1 UNK         0.0769 
    129 H129       34.8401   -0.6058  -10.5999 H         1 UNK         0.0769 
    130 H130       32.5264   -0.3338   -8.2917 H         1 UNK         0.2981 
    131 H131       34.2220    0.3764   -6.0601 H         1 UNK         0.0541 
    132 H132       31.1561    3.0412   -6.0688 H         1 UNK         0.3459 
    133 H133       31.5010    2.0573   -7.4682 H         1 UNK         0.3459 
    134 H134       31.5824   -1.1632   -6.0516 H         1 UNK         0.0612 
    135 H135       32.7018   -1.0433   -4.7202 H         1 UNK         0.0612 
    136 H136       34.5231   -2.8760   -4.2901 H         1 UNK         0.0624 
    137 H137       34.4003   -4.3711   -5.1878 H         1 UNK         0.0624 
@<TRIPOS>BOND
     1    1    2 1    
     2    1   72 1    
     3    1   73 1    
     4    1   74 1    
     5    2    3 2    
     6    2    4 am   BACKBONE|DICT|INTERRES
     7    4    5 1    
     8    4   75 1    
     9    5    6 1    
    10    5   35 1    
    11    5   76 1    
    12    6    7 1    
    13    6   77 1    
    14    6   78 1    
    15    7    8 1    
    16    8    9 1    
    17    8   79 1    
    18    8   80 1    
    19    9   10 ar   
    20    9   14 ar   
    21   10   11 ar   
    22   10   81 1    
    23   11   12 ar   
    24   11   71 1    
    25   12   13 ar   
    26   12   82 1    
    27   13   14 ar   
    28   13   15 1    
    29   14   83 1    
    30   15   16 1    
    31   15   84 1    
    32   15   85 1    
    33   16   17 1    
    34   17   18 1    
    35   17   86 1    
    36   17   87 1    
    37   18   19 1    
    38   18   37 1    
    39   18   88 1    
    40   19   20 am   BACKBONE|DICT|INTERRES
    41   19   89 1    
    42   20   21 2    
    43   20   22 1    
    44   22   23 1    
    45   22   24 1    
    46   22   90 1    
    47   23   91 1    
    48   23   92 1    
    49   23   93 1    
    50   24   25 am   BACKBONE|DICT|INTERRES
    51   24   94 1    
    52   25   26 2    
    53   25   27 1    
    54   27   28 1    
    55   27   29 1    
    56   27   95 1    
    57   28   96 1    
    58   28   97 1    
    59   28   98 1    
    60   29   30 am   BACKBONE|DICT|INTERRES
    61   29   99 1    
    62   30   31 2    
    63   30   32 1    
    64   32   33 1    
    65   32   34 1    
    66   32  100 1    
    67   33  101 1    
    68   33  102 1    
    69   33  103 1    
    70   34   35 am   BACKBONE|DICT|INTERRES
    71   34  104 1    
    72   35   36 2    
    73   37   38 2    
    74   37   39 am   BACKBONE|DICT|INTERRES
    75   39   40 1    
    76   39  105 1    
    77   40   41 1    
    78   40   42 1    
    79   40  106 1    
    80   41  107 1    
    81   41  108 1    
    82   41  109 1    
    83   42   43 2    
    84   42   44 am   BACKBONE|DICT|INTERRES
    85   44   45 1    
    86   44  110 1    
    87   45   46 1    
    88   45   47 1    
    89   45  111 1    
    90   46  112 1    
    91   46  113 1    
    92   46  114 1    
    93   47   48 2    
    94   47   49 am   BACKBONE|DICT|INTERRES
    95   49   50 1    
    96   49  115 1    
    97   50   51 1    
    98   50   52 1    
    99   50  116 1    
   100   51  117 1    
   101   51  118 1    
   102   51  119 1    
   103   52   53 2    
   104   52   54 am   BACKBONE|DICT|INTERRES
   105   54   55 1    
   106   54  120 1    
   107   55   56 1    
   108   55   57 1    
   109   55  121 1    
   110   56  122 1    
   111   56  123 1    
   112   56  124 1    
   113   57   58 2    
   114   57   59 am   BACKBONE|DICT|INTERRES
   115   59   60 1    
   116   59  125 1    
   117   60   61 1    
   118   60   62 1    
   119   60  126 1    
   120   61  127 1    
   121   61  128 1    
   122   61  129 1    
   123   62   63 2    
   124   62   64 am   BACKBONE|DICT|INTERRES
   125   64   65 1    
   126   64  130 1    
   127   65   66 1    
   128   65   69 1    
   129   65  131 1    
   130   66   67 am   BACKBONE|DICT|INTERRES
   131   66   68 2    
   132   67  132 1    
   133   67  133 1    
   134   69   70 1    
   135   69  134 1    
   136   69  135 1    
   137   70   71 1    
   138   71  136 1    
   139   71  137 1    
@<TRIPOS>SUBSTRUCTURE
     1 UNK         1 GROUP             0       ****    0 ROOT    
