@<TRIPOS>MOLECULE
3R137
137   139    1
SMALL
USER_CHARGES


@<TRIPOS>ATOM
      1 CA         23.5466   -6.1037   -0.2637 C.3       0 UNK        -0.2020 
      2 C          24.9624   -5.7059    0.1269 C.2       0 UNK         0.4855 
      3 O          25.5592   -6.3429    0.9953 O.2       0 UNK        -0.5197 
      4 N          25.5018   -4.6594   -0.5058 N.am      1 UNK        -0.4892 
      5 CA         26.8270   -4.1027   -0.2392 C.3       1 UNK         0.0835 
      6 C6         27.9667   -4.9440   -0.8798 C.3       12 UNK        -0.0855 
      7 S7         29.5791   -4.6110   -0.0931 S.3       12 UNK        -0.2931 
      8 C8         30.7440   -5.1067   -1.4005 C.3       12 UNK         0.0378 
      9 C9         30.7461   -4.1252   -2.5630 C.ar      12 UNK        -0.0802 
     10 C10        31.3273   -2.8626   -2.4134 C.ar      12 UNK        -0.0944 
     11 C11        31.3472   -1.9527   -3.4754 C.ar      12 UNK        -0.0787 
     12 C12        30.7628   -2.3195   -4.6942 C.ar      12 UNK        -0.0862 
     13 C13        30.1993   -3.5896   -4.8651 C.ar      12 UNK        -0.0733 
     14 C14        30.1934   -4.4871   -3.7943 C.ar      12 UNK        -0.0832 
     15 C15        29.6560   -4.0128   -6.2255 C.3       12 UNK         0.0240 
     16 S16        27.9161   -4.5680   -6.1980 S.3       12 UNK        -0.2522 
     17 C17        27.0206   -3.1250   -5.5362 C.3       12 UNK        -0.0967 
     18 CA         26.5977   -2.1009   -6.6237 C.3       5 UNK         0.0660 
     19 N          25.3634   -1.3956   -6.2684 N.am      5 UNK        -0.4015 
     20 C          24.6825   -0.5873   -7.0966 C.2       4 UNK         0.4946 
     21 O          24.9744   -0.4174   -8.2806 O.2       4 UNK        -0.5353 
     22 CA         23.5118    0.2119   -6.4953 C.3       4 UNK         0.0277 
     23 CB         22.1998   -0.5784   -6.6192 C.3       4 UNK        -0.1981 
     24 N          23.7247    0.5946   -5.0959 N.am      4 UNK        -0.4209 
     25 C          24.7217    1.3780   -4.6606 C.2       3 UNK         0.4942 
     26 O          25.5445    1.9060   -5.4095 O.2       3 UNK        -0.5208 
     27 CA         24.8690    1.5667   -3.1375 C.3       3 UNK         0.0250 
     28 CB         23.6379    1.1046   -2.3243 C.3       3 UNK        -0.1990 
     29 N          26.0875    0.9275   -2.6178 N.am      3 UNK        -0.4232 
     30 C          26.4442   -0.3599   -2.7529 C.2       2 UNK         0.4993 
     31 O          25.7925   -1.1792   -3.4045 O.2       2 UNK        -0.5286 
     32 CA         27.7657   -0.8163   -2.0934 C.3       2 UNK         0.0209 
     33 CB         28.3233    0.1668   -1.0401 C.3       2 UNK        -0.1931 
     34 N          27.6728   -2.1698   -1.5293 N.am      2 UNK        -0.4546 
     35 C          26.7818   -2.6115   -0.6275 C.2       1 UNK         0.5154 
     36 O          25.9238   -1.8960   -0.1043 O.2       1 UNK        -0.5181 
     37 C          27.7295   -1.0965   -6.8977 C.2       5 UNK         0.5014 
     38 O          28.4350   -1.2299   -7.8965 O.2       5 UNK        -0.5248 
     39 N          27.8623   -0.0912   -6.0190 N.am      6 UNK        -0.4434 
     40 CA         28.8794    0.9527   -6.1179 C.3       6 UNK         0.0363 
     41 CB         28.9221    1.7996   -4.8358 C.3       6 UNK        -0.1936 
     42 C          28.7046    1.8350   -7.3567 C.2       6 UNK         0.5081 
     43 O          29.6960    2.1257   -8.0269 O.2       6 UNK        -0.5248 
     44 N          27.4501    2.1971   -7.6542 N.am      7 UNK        -0.4718 
     45 CA         27.0562    2.9262   -8.8593 C.3       7 UNK         0.0273 
     46 CB         25.5691    3.3027   -8.7643 C.3       7 UNK        -0.1935 
     47 C          27.3399    2.1412  -10.1517 C.2       7 UNK         0.5018 
     48 O          27.8303    2.7306  -11.1150 O.2       7 UNK        -0.5186 
     49 N          27.0446    0.8329  -10.1457 N.am      8 UNK        -0.4240 
     50 CA         27.2895   -0.0726  -11.2700 C.3       8 UNK         0.0235 
     51 CB         26.5303   -1.3912  -11.0488 C.3       8 UNK        -0.2000 
     52 C          28.7841   -0.3406  -11.5111 C.2       8 UNK         0.4941 
     53 O          29.2326   -0.2694  -12.6560 O.2       8 UNK        -0.5273 
     54 N          29.5240   -0.6553  -10.4392 N.am      9 UNK        -0.4262 
     55 CA         30.9414   -1.0238  -10.4958 C.3       9 UNK         0.0264 
     56 CB         31.2910   -1.8528   -9.2484 C.3       9 UNK        -0.1955 
     57 C          31.9022    0.1711  -10.6207 C.2       9 UNK         0.5031 
     58 O          33.0665   -0.0492  -10.9576 O.2       9 UNK        -0.5390 
     59 N          31.4262    1.3886  -10.3135 N.am      10 UNK        -0.4204 
     60 CA         32.2059    2.6222  -10.1305 C.3       10 UNK         0.0237 
     61 CB         32.8859    3.0715  -11.4420 C.3       10 UNK        -0.1985 
     62 C          33.1798    2.4850   -8.9425 C.2       10 UNK         0.4970 
     63 O          34.3705    2.7784   -9.0639 O.2       10 UNK        -0.4914 
     64 N          32.6354    1.9980   -7.8216 N.am      11 UNK        -0.4285 
     65 CA         33.3503    1.6889   -6.5734 C.3       11 UNK         0.1007 
     66 C          33.7894    2.9439   -5.7618 C.2       11 UNK         0.5703 
     67 N          33.2051    4.1149   -5.9902 N.am      11 UNK        -0.7361 
     68 O          34.6865    2.8606   -4.9270 O.2       11 UNK        -0.4986 
     69 C69        32.4913    0.7102   -5.7331 C.3       12 UNK        -0.0947 
     70 S70        33.3589   -0.2377   -4.4412 S.3       12 UNK        -0.2240 
     71 C71        31.9883   -0.5795   -3.2785 C.3       12 UNK         0.0194 
     72 H72        23.1425   -5.4611   -1.0458 H         1 UNK         0.0906 
     73 H73        23.5327   -7.1305   -0.6285 H         1 UNK         0.0906 
     74 H74        22.8870   -6.0405    0.6013 H         1 UNK         0.0906 
     75 H75        24.9500   -4.1334   -1.1714 H         1 UNK         0.3140 
     76 H76        26.9689   -4.1124    0.8444 H         1 UNK         0.1085 
     77 H77        27.7692   -6.0074   -0.7366 H         1 UNK         0.0836 
     78 H78        28.0103   -4.8029   -1.9605 H         1 UNK         0.0836 
     79 H79        31.7477   -5.1593   -0.9759 H         1 UNK         0.0731 
     80 H80        30.5028   -6.1163   -1.7374 H         1 UNK         0.0731 
     81 H81        31.7643   -2.5917   -1.4617 H         1 UNK         0.1312 
     82 H82        30.7700   -1.6287   -5.5226 H         1 UNK         0.1406 
     83 H83        29.7642   -5.4715   -3.9266 H         1 UNK         0.1631 
     84 H84        30.2690   -4.8342   -6.5985 H         1 UNK         0.0717 
     85 H85        29.7667   -3.2118   -6.9538 H         1 UNK         0.0717 
     86 H86        27.5950   -2.6656   -4.7302 H         1 UNK         0.0934 
     87 H87        26.1310   -3.5292   -5.0502 H         1 UNK         0.0934 
     88 H88        26.3960   -2.6372   -7.5537 H         1 UNK         0.0739 
     89 H89        25.1040   -1.4251   -5.2869 H         1 UNK         0.3093 
     90 H90        23.4132    1.1313   -7.0762 H         1 UNK         0.0818 
     91 H91        21.3472    0.0114   -6.2821 H         1 UNK         0.0819 
     92 H92        22.0090   -0.8554   -7.6572 H         1 UNK         0.0819 
     93 H93        22.2245   -1.4995   -6.0355 H         1 UNK         0.0819 
     94 H94        23.1072    0.1846   -4.4101 H         1 UNK         0.3041 
     95 H95        24.9859    2.6398   -2.9783 H         1 UNK         0.0784 
     96 H96        22.7264    1.5953   -2.6689 H         1 UNK         0.0793 
     97 H97        23.4826    0.0264   -2.3811 H         1 UNK         0.0793 
     98 H98        23.7537    1.3582   -1.2704 H         1 UNK         0.0793 
     99 H99        26.6987    1.5320   -2.0871 H         1 UNK         0.3024 
    100 H100       28.4945   -0.8837   -2.9022 H         1 UNK         0.1171 
    101 H101       29.2453   -0.2159   -0.6016 H         1 UNK         0.0786 
    102 H102       27.6173    0.3341   -0.2254 H         1 UNK         0.0786 
    103 H103       28.5652    1.1354   -1.4786 H         1 UNK         0.0786 
    104 H104       28.3446   -2.8365   -1.8849 H         1 UNK         0.2977 
    105 H105       27.1714    0.0061   -5.2897 H         1 UNK         0.3127 
    106 H106       29.8298    0.4383   -6.2299 H         1 UNK         0.0770 
    107 H107       27.9756    2.3041   -4.6451 H         1 UNK         0.0814 
    108 H108       29.6847    2.5762   -4.9072 H         1 UNK         0.0814 
    109 H109       29.1620    1.1940   -3.9646 H         1 UNK         0.0814 
    110 H110       26.7123    1.9536   -6.9985 H         1 UNK         0.2983 
    111 H111       27.6430    3.8467   -8.8960 H         1 UNK         0.0947 
    112 H112       25.2568    3.8819   -9.6343 H         1 UNK         0.0806 
    113 H113       25.3694    3.9095   -7.8808 H         1 UNK         0.0806 
    114 H114       24.9315    2.4194   -8.7134 H         1 UNK         0.0806 
    115 H115       26.6002    0.4334   -9.3255 H         1 UNK         0.3000 
    116 H116       26.8895    0.3974  -12.1712 H         1 UNK         0.0850 
    117 H117       26.6929   -2.0809  -11.8781 H         1 UNK         0.0810 
    118 H118       25.4560   -1.2207  -10.9748 H         1 UNK         0.0810 
    119 H119       26.8500   -1.8950  -10.1358 H         1 UNK         0.0810 
    120 H120       29.0688   -0.7385   -9.5301 H         1 UNK         0.3040 
    121 H121       31.0987   -1.6559  -11.3725 H         1 UNK         0.0766 
    122 H122       32.3334   -2.1737   -9.2671 H         1 UNK         0.0812 
    123 H123       31.1414   -1.2823   -8.3314 H         1 UNK         0.0812 
    124 H124       30.6774   -2.7517   -9.1892 H         1 UNK         0.0812 
    125 H125       30.4644    1.4434   -9.9991 H         1 UNK         0.3205 
    126 H126       31.4895    3.3969   -9.8527 H         1 UNK         0.0754 
    127 H127       33.3502    4.0509  -11.3213 H         1 UNK         0.0769 
    128 H128       32.1634    3.1525  -12.2541 H         1 UNK         0.0769 
    129 H129       33.6687    2.3809  -11.7568 H         1 UNK         0.0769 
    130 H130       31.6302    1.8573   -7.8146 H         1 UNK         0.2981 
    131 H131       34.2666    1.1674   -6.8567 H         1 UNK         0.0541 
    132 H132       32.4756    4.1979   -6.6793 H         1 UNK         0.3459 
    133 H133       33.5023    4.9240   -5.4681 H         1 UNK         0.3459 
    134 H134       32.0486   -0.0308   -6.3979 H         1 UNK         0.0612 
    135 H135       31.6721    1.2619   -5.2759 H         1 UNK         0.0612 
    136 H136       32.3943   -0.4992   -2.2691 H         1 UNK         0.0624 
    137 H137       31.2214    0.1909   -3.3450 H         1 UNK         0.0624 
@<TRIPOS>BOND
     1    1    2 1    
     2    1   72 1    
     3    1   73 1    
     4    1   74 1    
     5    2    3 2    
     6    2    4 am   BACKBONE|DICT|INTERRES
     7    4    5 1    
     8    4   75 1    
     9    5    6 1    
    10    5   35 1    
    11    5   76 1    
    12    6    7 1    
    13    6   77 1    
    14    6   78 1    
    15    7    8 1    
    16    8    9 1    
    17    8   79 1    
    18    8   80 1    
    19    9   10 ar   
    20    9   14 ar   
    21   10   11 ar   
    22   10   81 1    
    23   11   12 ar   
    24   11   71 1    
    25   12   13 ar   
    26   12   82 1    
    27   13   14 ar   
    28   13   15 1    
    29   14   83 1    
    30   15   16 1    
    31   15   84 1    
    32   15   85 1    
    33   16   17 1    
    34   17   18 1    
    35   17   86 1    
    36   17   87 1    
    37   18   19 1    
    38   18   37 1    
    39   18   88 1    
    40   19   20 am   BACKBONE|DICT|INTERRES
    41   19   89 1    
    42   20   21 2    
    43   20   22 1    
    44   22   23 1    
    45   22   24 1    
    46   22   90 1    
    47   23   91 1    
    48   23   92 1    
    49   23   93 1    
    50   24   25 am   BACKBONE|DICT|INTERRES
    51   24   94 1    
    52   25   26 2    
    53   25   27 1    
    54   27   28 1    
    55   27   29 1    
    56   27   95 1    
    57   28   96 1    
    58   28   97 1    
    59   28   98 1    
    60   29   30 am   BACKBONE|DICT|INTERRES
    61   29   99 1    
    62   30   31 2    
    63   30   32 1    
    64   32   33 1    
    65   32   34 1    
    66   32  100 1    
    67   33  101 1    
    68   33  102 1    
    69   33  103 1    
    70   34   35 am   BACKBONE|DICT|INTERRES
    71   34  104 1    
    72   35   36 2    
    73   37   38 2    
    74   37   39 am   BACKBONE|DICT|INTERRES
    75   39   40 1    
    76   39  105 1    
    77   40   41 1    
    78   40   42 1    
    79   40  106 1    
    80   41  107 1    
    81   41  108 1    
    82   41  109 1    
    83   42   43 2    
    84   42   44 am   BACKBONE|DICT|INTERRES
    85   44   45 1    
    86   44  110 1    
    87   45   46 1    
    88   45   47 1    
    89   45  111 1    
    90   46  112 1    
    91   46  113 1    
    92   46  114 1    
    93   47   48 2    
    94   47   49 am   BACKBONE|DICT|INTERRES
    95   49   50 1    
    96   49  115 1    
    97   50   51 1    
    98   50   52 1    
    99   50  116 1    
   100   51  117 1    
   101   51  118 1    
   102   51  119 1    
   103   52   53 2    
   104   52   54 am   BACKBONE|DICT|INTERRES
   105   54   55 1    
   106   54  120 1    
   107   55   56 1    
   108   55   57 1    
   109   55  121 1    
   110   56  122 1    
   111   56  123 1    
   112   56  124 1    
   113   57   58 2    
   114   57   59 am   BACKBONE|DICT|INTERRES
   115   59   60 1    
   116   59  125 1    
   117   60   61 1    
   118   60   62 1    
   119   60  126 1    
   120   61  127 1    
   121   61  128 1    
   122   61  129 1    
   123   62   63 2    
   124   62   64 am   BACKBONE|DICT|INTERRES
   125   64   65 1    
   126   64  130 1    
   127   65   66 1    
   128   65   69 1    
   129   65  131 1    
   130   66   67 am   BACKBONE|DICT|INTERRES
   131   66   68 2    
   132   67  132 1    
   133   67  133 1    
   134   69   70 1    
   135   69  134 1    
   136   69  135 1    
   137   70   71 1    
   138   71  136 1    
   139   71  137 1    
@<TRIPOS>SUBSTRUCTURE
     1 UNK         1 GROUP             0       ****    0 ROOT    
