@<TRIPOS>MOLECULE
3R137
137   139    1
SMALL
USER_CHARGES


@<TRIPOS>ATOM
      1 CA         27.6031   -6.2523   -6.3658 C.3       0 UNK        -0.2020 
      2 C          27.1755   -5.6927   -5.0172 C.2       0 UNK         0.4855 
      3 O          26.0325   -5.8920   -4.6047 O.2       0 UNK        -0.5197 
      4 N          28.0883   -4.9986   -4.3268 N.am      1 UNK        -0.4892 
      5 CA         27.8589   -4.3521   -3.0305 C.3       1 UNK         0.0835 
      6 C6         29.1573   -3.7368   -2.4532 C.3       12 UNK        -0.0855 
      7 S7         30.6410   -4.7941   -2.4836 S.3       12 UNK        -0.2931 
      8 C8         31.7566   -3.8373   -1.3984 C.3       12 UNK         0.0378 
      9 C9         32.0184   -2.4223   -1.9097 C.ar      12 UNK        -0.0802 
     10 C10        33.1299   -2.1499   -2.7151 C.ar      12 UNK        -0.0944 
     11 C11        33.3937   -0.8441   -3.1462 C.ar      12 UNK        -0.0787 
     12 C12        32.5165    0.1854   -2.7864 C.ar      12 UNK        -0.0862 
     13 C13        31.3848   -0.0769   -2.0099 C.ar      12 UNK        -0.0733 
     14 C14        31.1604   -1.3763   -1.5502 C.ar      12 UNK        -0.0832 
     15 C15        30.4258    1.0477   -1.6377 C.3       12 UNK         0.0240 
     16 S16        29.6854    1.8566   -3.0949 S.3       12 UNK        -0.2522 
     17 C17        28.4236    0.6524   -3.6385 C.3       12 UNK        -0.0967 
     18 CA         27.9507    0.9173   -5.0922 C.3       5 UNK         0.0660 
     19 N          27.2324   -0.2289   -5.6591 N.am      5 UNK        -0.4015 
     20 C          26.8698   -0.3509   -6.9437 C.2       4 UNK         0.4946 
     21 O          27.1498    0.4788   -7.8058 O.2       4 UNK        -0.5353 
     22 CA         26.0130   -1.5647   -7.3312 C.3       4 UNK         0.0277 
     23 CB         26.8776   -2.8032   -7.6094 C.3       4 UNK        -0.1981 
     24 N          25.0278   -1.8758   -6.2974 N.am      4 UNK        -0.4209 
     25 C          23.8443   -1.2611   -6.1732 C.2       3 UNK         0.4942 
     26 O          23.4338   -0.4020   -6.9535 O.2       3 UNK        -0.5208 
     27 CA         22.9704   -1.6626   -4.9710 C.3       3 UNK         0.0250 
     28 CB         22.0372   -2.8236   -5.3498 C.3       3 UNK        -0.1990 
     29 N          23.7387   -2.0270   -3.7762 N.am      3 UNK        -0.4232 
     30 C          24.4968   -1.1719   -3.0771 C.2       2 UNK         0.4993 
     31 O          24.6551    0.0115   -3.3783 O.2       2 UNK        -0.5286 
     32 CA         25.2546   -1.7467   -1.8676 C.3       2 UNK         0.0209 
     33 CB         24.2981   -1.9649   -0.6837 C.3       2 UNK        -0.1931 
     34 N          26.0277   -2.9765   -2.1108 N.am      2 UNK        -0.4546 
     35 C          26.8404   -3.2025   -3.1536 C.2       1 UNK         0.5154 
     36 O          26.8919   -2.4823   -4.1507 O.2       1 UNK        -0.5181 
     37 C          27.1214    2.2142   -5.2267 C.2       5 UNK         0.5014 
     38 O          27.6658    3.2415   -5.6334 O.2       5 UNK        -0.5248 
     39 N          25.8039    2.1290   -4.9814 N.am      6 UNK        -0.4434 
     40 CA         24.8343    3.2042   -5.2258 C.3       6 UNK         0.0363 
     41 CB         23.4571    2.7743   -4.6963 C.3       6 UNK        -0.1936 
     42 C          24.7269    3.6350   -6.7036 C.2       6 UNK         0.5081 
     43 O          24.3620    4.7804   -6.9686 O.2       6 UNK        -0.5248 
     44 N          25.0640    2.7313   -7.6334 N.am      7 UNK        -0.4718 
     45 CA         25.1404    2.9834   -9.0749 C.3       7 UNK         0.0273 
     46 CB         24.6447    1.7309   -9.8201 C.3       7 UNK        -0.1935 
     47 C          26.5600    3.3782   -9.5347 C.2       7 UNK         0.5018 
     48 O          26.7769    3.5067  -10.7405 O.2       7 UNK        -0.5186 
     49 N          27.4949    3.5575   -8.5869 N.am      8 UNK        -0.4240 
     50 CA         28.9141    3.8858   -8.7709 C.3       8 UNK         0.0235 
     51 CB         29.0885    5.2662   -9.4414 C.3       8 UNK        -0.2000 
     52 C          29.7301    2.7703   -9.4569 C.2       8 UNK         0.4941 
     53 O          30.7226    3.0676  -10.1255 O.2       8 UNK        -0.5273 
     54 N          29.3170    1.5116   -9.2637 N.am      9 UNK        -0.4262 
     55 CA         30.0244    0.3061   -9.6871 C.3       9 UNK         0.0264 
     56 CB         29.0661   -0.5680  -10.5232 C.3       9 UNK        -0.1955 
     57 C          30.5974   -0.3853   -8.4354 C.2       9 UNK         0.5031 
     58 O          31.2831    0.2751   -7.6537 O.2       9 UNK        -0.5390 
     59 N          30.3407   -1.6929   -8.2745 N.am      10 UNK        -0.4204 
     60 CA         30.7706   -2.6025   -7.1965 C.3       10 UNK         0.0237 
     61 CB         30.3041   -2.1305   -5.8035 C.3       10 UNK        -0.1985 
     62 C          32.2771   -2.9089   -7.1705 C.2       10 UNK         0.4970 
     63 O          32.6479   -4.0764   -7.0467 O.2       10 UNK        -0.4914 
     64 N          33.1095   -1.8691   -7.2657 N.am      11 UNK        -0.4285 
     65 CA         34.5705   -1.9340   -7.1103 C.3       11 UNK         0.1007 
     66 C          35.3372   -2.5973   -8.2913 C.2       11 UNK         0.5703 
     67 N          34.7091   -2.8602   -9.4313 N.am      11 UNK        -0.7361 
     68 O          36.5256   -2.8838   -8.1668 O.2       11 UNK        -0.4986 
     69 C69        35.1819   -0.5493   -6.7599 C.3       12 UNK        -0.0947 
     70 S70        34.2546    0.3802   -5.4922 S.3       12 UNK        -0.2240 
     71 C71        34.6427   -0.5392   -3.9674 C.3       12 UNK         0.0194 
     72 H72        27.6580   -7.3395   -6.3195 H         1 UNK         0.0906 
     73 H73        26.8783   -5.9811   -7.1326 H         1 UNK         0.0906 
     74 H74        28.5778   -5.8740   -6.6736 H         1 UNK         0.0906 
     75 H75        29.0179   -4.8788   -4.7016 H         1 UNK         0.3140 
     76 H76        27.4743   -5.1058   -2.3403 H         1 UNK         0.1085 
     77 H77        28.9814   -3.4316   -1.4199 H         1 UNK         0.0836 
     78 H78        29.4160   -2.8306   -3.0041 H         1 UNK         0.0836 
     79 H79        32.6998   -4.3775   -1.3041 H         1 UNK         0.0731 
     80 H80        31.3329   -3.7979   -0.3936 H         1 UNK         0.0731 
     81 H81        33.8004   -2.9533   -2.9881 H         1 UNK         0.1312 
     82 H82        32.7098    1.1960   -3.1197 H         1 UNK         0.1406 
     83 H83        30.3087   -1.5753   -0.9152 H         1 UNK         0.1631 
     84 H84        30.9752    1.7971   -1.0665 H         1 UNK         0.0717 
     85 H85        29.6282    0.6895   -0.9849 H         1 UNK         0.0717 
     86 H86        28.8642   -0.3437   -3.5727 H         1 UNK         0.0934 
     87 H87        27.5838    0.6622   -2.9411 H         1 UNK         0.0934 
     88 H88        28.8434    1.0445   -5.7100 H         1 UNK         0.0739 
     89 H89        27.0040   -0.9915   -5.0212 H         1 UNK         0.3093 
     90 H90        25.4882   -1.3139   -8.2558 H         1 UNK         0.0818 
     91 H91        27.6153   -2.6017   -8.3844 H         1 UNK         0.0819 
     92 H92        26.2662   -3.6352   -7.9584 H         1 UNK         0.0819 
     93 H93        27.4137   -3.1350   -6.7216 H         1 UNK         0.0819 
     94 H94        25.3275   -2.5062   -5.5631 H         1 UNK         0.3041 
     95 H95        22.3529   -0.7982   -4.7167 H         1 UNK         0.0784 
     96 H96        21.4359   -2.5710   -6.2245 H         1 UNK         0.0793 
     97 H97        22.5956   -3.7298   -5.5886 H         1 UNK         0.0793 
     98 H98        21.3454   -3.0576   -4.5404 H         1 UNK         0.0793 
     99 H99        23.6933   -2.9893   -3.4727 H         1 UNK         0.3024 
    100 H100       25.9773   -0.9836   -1.5708 H         1 UNK         0.1171 
    101 H101       24.8435   -2.2066    0.2287 H         1 UNK         0.0786 
    102 H102       23.7156   -1.0651   -0.4790 H         1 UNK         0.0786 
    103 H103       23.5921   -2.7735   -0.8764 H         1 UNK         0.0786 
    104 H104       26.0525   -3.6320   -1.3426 H         1 UNK         0.2977 
    105 H105       25.4301    1.2664   -4.5896 H         1 UNK         0.3127 
    106 H106       25.1625    4.0768   -4.6574 H         1 UNK         0.0770 
    107 H107       23.0939    1.8793   -5.2032 H         1 UNK         0.0814 
    108 H108       22.7157    3.5600   -4.8474 H         1 UNK         0.0814 
    109 H109       23.4910    2.5630   -3.6274 H         1 UNK         0.0814 
    110 H110       25.3794    1.8185   -7.3309 H         1 UNK         0.2983 
    111 H111       24.4793    3.8126   -9.3356 H         1 UNK         0.0947 
    112 H112       24.5844    1.9121  -10.8939 H         1 UNK         0.0806 
    113 H113       23.6496    1.4370   -9.4855 H         1 UNK         0.0806 
    114 H114       25.3110    0.8810   -9.6723 H         1 UNK         0.0806 
    115 H115       27.2217    3.4070   -7.6210 H         1 UNK         0.3000 
    116 H116       29.3261    3.9645   -7.7638 H         1 UNK         0.0850 
    117 H117       30.1326    5.5809   -9.4217 H         1 UNK         0.0810 
    118 H118       28.5114    6.0338   -8.9259 H         1 UNK         0.0810 
    119 H119       28.7751    5.2531  -10.4855 H         1 UNK         0.0810 
    120 H120       28.4947    1.3450   -8.6845 H         1 UNK         0.3040 
    121 H121       30.8774    0.5644  -10.3175 H         1 UNK         0.0766 
    122 H122       28.7083   -0.0185  -11.3942 H         1 UNK         0.0812 
    123 H123       28.1876   -0.8749   -9.9555 H         1 UNK         0.0812 
    124 H124       29.5615   -1.4633  -10.9006 H         1 UNK         0.0812 
    125 H125       29.8120   -2.1372   -9.0117 H         1 UNK         0.3205 
    126 H126       30.2695   -3.5509   -7.3975 H         1 UNK         0.0754 
    127 H127       30.6438   -2.8209   -5.0309 H         1 UNK         0.0769 
    128 H128       29.2205   -2.0849   -5.7364 H         1 UNK         0.0769 
    129 H129       30.6990   -1.1485   -5.5410 H         1 UNK         0.0769 
    130 H130       32.6989   -0.9412   -7.3376 H         1 UNK         0.2981 
    131 H131       34.7539   -2.5864   -6.2550 H         1 UNK         0.0541 
    132 H132       33.7338   -2.6346   -9.5384 H         1 UNK         0.3459 
    133 H133       35.2160   -3.2933  -10.1870 H         1 UNK         0.3459 
    134 H134       36.2149   -0.6585   -6.4243 H         1 UNK         0.0612 
    135 H135       35.2172    0.0794   -7.6515 H         1 UNK         0.0612 
    136 H136       35.1737   -1.4599   -4.2110 H         1 UNK         0.0624 
    137 H137       35.3275    0.0575   -3.3637 H         1 UNK         0.0624 
@<TRIPOS>BOND
     1    1    2 1    
     2    1   72 1    
     3    1   73 1    
     4    1   74 1    
     5    2    3 2    
     6    2    4 am   BACKBONE|DICT|INTERRES
     7    4    5 1    
     8    4   75 1    
     9    5    6 1    
    10    5   35 1    
    11    5   76 1    
    12    6    7 1    
    13    6   77 1    
    14    6   78 1    
    15    7    8 1    
    16    8    9 1    
    17    8   79 1    
    18    8   80 1    
    19    9   10 ar   
    20    9   14 ar   
    21   10   11 ar   
    22   10   81 1    
    23   11   12 ar   
    24   11   71 1    
    25   12   13 ar   
    26   12   82 1    
    27   13   14 ar   
    28   13   15 1    
    29   14   83 1    
    30   15   16 1    
    31   15   84 1    
    32   15   85 1    
    33   16   17 1    
    34   17   18 1    
    35   17   86 1    
    36   17   87 1    
    37   18   19 1    
    38   18   37 1    
    39   18   88 1    
    40   19   20 am   BACKBONE|DICT|INTERRES
    41   19   89 1    
    42   20   21 2    
    43   20   22 1    
    44   22   23 1    
    45   22   24 1    
    46   22   90 1    
    47   23   91 1    
    48   23   92 1    
    49   23   93 1    
    50   24   25 am   BACKBONE|DICT|INTERRES
    51   24   94 1    
    52   25   26 2    
    53   25   27 1    
    54   27   28 1    
    55   27   29 1    
    56   27   95 1    
    57   28   96 1    
    58   28   97 1    
    59   28   98 1    
    60   29   30 am   BACKBONE|DICT|INTERRES
    61   29   99 1    
    62   30   31 2    
    63   30   32 1    
    64   32   33 1    
    65   32   34 1    
    66   32  100 1    
    67   33  101 1    
    68   33  102 1    
    69   33  103 1    
    70   34   35 am   BACKBONE|DICT|INTERRES
    71   34  104 1    
    72   35   36 2    
    73   37   38 2    
    74   37   39 am   BACKBONE|DICT|INTERRES
    75   39   40 1    
    76   39  105 1    
    77   40   41 1    
    78   40   42 1    
    79   40  106 1    
    80   41  107 1    
    81   41  108 1    
    82   41  109 1    
    83   42   43 2    
    84   42   44 am   BACKBONE|DICT|INTERRES
    85   44   45 1    
    86   44  110 1    
    87   45   46 1    
    88   45   47 1    
    89   45  111 1    
    90   46  112 1    
    91   46  113 1    
    92   46  114 1    
    93   47   48 2    
    94   47   49 am   BACKBONE|DICT|INTERRES
    95   49   50 1    
    96   49  115 1    
    97   50   51 1    
    98   50   52 1    
    99   50  116 1    
   100   51  117 1    
   101   51  118 1    
   102   51  119 1    
   103   52   53 2    
   104   52   54 am   BACKBONE|DICT|INTERRES
   105   54   55 1    
   106   54  120 1    
   107   55   56 1    
   108   55   57 1    
   109   55  121 1    
   110   56  122 1    
   111   56  123 1    
   112   56  124 1    
   113   57   58 2    
   114   57   59 am   BACKBONE|DICT|INTERRES
   115   59   60 1    
   116   59  125 1    
   117   60   61 1    
   118   60   62 1    
   119   60  126 1    
   120   61  127 1    
   121   61  128 1    
   122   61  129 1    
   123   62   63 2    
   124   62   64 am   BACKBONE|DICT|INTERRES
   125   64   65 1    
   126   64  130 1    
   127   65   66 1    
   128   65   69 1    
   129   65  131 1    
   130   66   67 am   BACKBONE|DICT|INTERRES
   131   66   68 2    
   132   67  132 1    
   133   67  133 1    
   134   69   70 1    
   135   69  134 1    
   136   69  135 1    
   137   70   71 1    
   138   71  136 1    
   139   71  137 1    
@<TRIPOS>SUBSTRUCTURE
     1 UNK         1 GROUP             0       ****    0 ROOT    
