@<TRIPOS>MOLECULE
3R137
137   139    1
SMALL
USER_CHARGES


@<TRIPOS>ATOM
      1 CA         25.5792   -4.6103   -2.7957 C.3       0 UNK        -0.2020 
      2 C          26.3377   -3.3886   -2.3015 C.2       0 UNK         0.4855 
      3 O          26.5171   -2.4305   -3.0582 O.2       0 UNK        -0.5197 
      4 N          26.7792   -3.4221   -1.0348 N.am      1 UNK        -0.4892 
      5 CA         27.5691   -2.3912   -0.3469 C.3       1 UNK         0.0835 
      6 C6         29.0051   -2.2540   -0.9246 C.3       12 UNK        -0.0855 
      7 S7         30.0668   -3.6691   -0.4745 S.3       12 UNK        -0.2931 
      8 C8         29.8642   -4.8114   -1.8896 C.3       12 UNK         0.0378 
      9 C9         30.2975   -4.2655   -3.2509 C.ar      12 UNK        -0.0802 
     10 C10        31.3104   -3.3062   -3.3792 C.ar      12 UNK        -0.0944 
     11 C11        31.7003   -2.8298   -4.6338 C.ar      12 UNK        -0.0787 
     12 C12        31.0691   -3.3475   -5.7731 C.ar      12 UNK        -0.0862 
     13 C13        30.0525   -4.3010   -5.6720 C.ar      12 UNK        -0.0733 
     14 C14        29.6842   -4.7659   -4.4049 C.ar      12 UNK        -0.0832 
     15 C15        29.4125   -4.8269   -6.9594 C.3       12 UNK         0.0240 
     16 S16        27.6481   -5.3045   -6.8586 S.3       12 UNK        -0.2522 
     17 C17        26.8241   -3.8606   -6.1083 C.3       12 UNK        -0.0967 
     18 CA         26.5900   -2.6622   -7.0662 C.3       5 UNK         0.0660 
     19 N          25.3682   -1.9255   -6.7163 N.am      5 UNK        -0.4015 
     20 C          24.8847   -0.8361   -7.3286 C.2       4 UNK         0.4946 
     21 O          25.4400   -0.2779   -8.2737 O.2       4 UNK        -0.5353 
     22 CA         23.5684   -0.2390   -6.7992 C.3       4 UNK         0.0277 
     23 CB         22.3529   -0.9649   -7.4081 C.3       4 UNK        -0.1981 
     24 N          23.4659   -0.1416   -5.3346 N.am      4 UNK        -0.4209 
     25 C          23.3854   -1.1276   -4.4309 C.2       3 UNK         0.4942 
     26 O          23.4559   -2.3261   -4.7085 O.2       3 UNK        -0.5208 
     27 CA         23.2672   -0.6784   -2.9715 C.3       3 UNK         0.0250 
     28 CB         22.7307   -1.7865   -2.0460 C.3       3 UNK        -0.1990 
     29 N          24.5922   -0.2690   -2.5163 N.am      3 UNK        -0.4232 
     30 C          24.8875    0.8961   -1.9240 C.2       2 UNK         0.4993 
     31 O          24.0584    1.7855   -1.7240 O.2       2 UNK        -0.5286 
     32 CA         26.3557    1.1111   -1.4933 C.3       2 UNK         0.0209 
     33 CB         26.4953    2.0926   -0.3094 C.3       2 UNK        -0.1931 
     34 N          27.0737   -0.1443   -1.2260 N.am      2 UNK        -0.4546 
     35 C          26.7840   -1.0635   -0.2905 C.2       1 UNK         0.5154 
     36 O          25.9093   -0.9263    0.5664 O.2       1 UNK        -0.5181 
     37 C          27.8187   -1.7360   -7.1114 C.2       5 UNK         0.5014 
     38 O          28.4490   -1.6005   -8.1610 O.2       5 UNK        -0.5248 
     39 N          28.1016   -1.0832   -5.9753 N.am      6 UNK        -0.4434 
     40 CA         29.2275   -0.1629   -5.8135 C.3       6 UNK         0.0363 
     41 CB         29.3908    0.1833   -4.3278 C.3       6 UNK        -0.1936 
     42 C          29.1137    1.1094   -6.6675 C.2       6 UNK         0.5081 
     43 O          30.1389    1.6419   -7.0899 O.2       6 UNK        -0.5248 
     44 N          27.8798    1.5610   -6.9311 N.am      7 UNK        -0.4718 
     45 CA         27.5950    2.6997   -7.8051 C.3       7 UNK         0.0273 
     46 CB         26.1454    3.1690   -7.6004 C.3       7 UNK        -0.1935 
     47 C          27.8711    2.3703   -9.2805 C.2       7 UNK         0.5018 
     48 O          28.5258    3.1600   -9.9607 O.2       7 UNK        -0.5186 
     49 N          27.3980    1.2013   -9.7365 N.am      8 UNK        -0.4240 
     50 CA         27.6117    0.6862  -11.0907 C.3       8 UNK         0.0235 
     51 CB         26.7086   -0.5357  -11.3246 C.3       8 UNK        -0.2000 
     52 C          29.0820    0.3356  -11.3685 C.2       8 UNK         0.4941 
     53 O          29.5883    0.6607  -12.4431 O.2       8 UNK        -0.5273 
     54 N          29.7424   -0.3061  -10.3953 N.am      9 UNK        -0.4262 
     55 CA         31.1564   -0.6839  -10.4630 C.3       9 UNK         0.0264 
     56 CB         31.4131   -1.8053   -9.4477 C.3       9 UNK        -0.1955 
     57 C          32.1312    0.4894  -10.2395 C.2       9 UNK         0.5031 
     58 O          33.3090    0.3443  -10.5702 O.2       9 UNK        -0.5390 
     59 N          31.6348    1.6123   -9.6971 N.am      10 UNK        -0.4204 
     60 CA         32.3578    2.8400   -9.3443 C.3       10 UNK         0.0237 
     61 CB         32.9220    3.5362  -10.6017 C.3       10 UNK        -0.1985 
     62 C          33.4171    2.5907   -8.2538 C.2       10 UNK         0.4970 
     63 O          34.6061    2.8372   -8.4682 O.2       10 UNK        -0.4914 
     64 N          32.9521    2.0985   -7.1034 N.am      11 UNK        -0.4285 
     65 CA         33.7550    1.7544   -5.9225 C.3       11 UNK         0.1007 
     66 C          33.0230    2.1216   -4.6016 C.2       11 UNK         0.5703 
     67 N          33.5594    1.7332   -3.4519 N.am      11 UNK        -0.7361 
     68 O          31.9938    2.7940   -4.5963 O.2       11 UNK        -0.4986 
     69 C69        34.2990    0.2956   -5.9848 C.3       12 UNK        -0.0947 
     70 S70        33.0205   -0.9611   -6.3200 S.3       12 UNK        -0.2240 
     71 C71        32.8081   -1.7711   -4.6981 C.3       12 UNK         0.0194 
     72 H72        25.2141   -5.2218   -1.9709 H         1 UNK         0.0906 
     73 H73        24.7206   -4.3074   -3.3936 H         1 UNK         0.0906 
     74 H74        26.2273   -5.2268   -3.4174 H         1 UNK         0.0906 
     75 H75        26.5588   -4.2275   -0.4654 H         1 UNK         0.3140 
     76 H76        27.6611   -2.7128    0.6923 H         1 UNK         0.1085 
     77 H77        28.9893   -2.1365   -2.0077 H         1 UNK         0.0836 
     78 H78        29.4958   -1.3630   -0.5276 H         1 UNK         0.0836 
     79 H79        30.4467   -5.7105   -1.6855 H         1 UNK         0.0731 
     80 H80        28.8222   -5.1293   -1.9285 H         1 UNK         0.0731 
     81 H81        31.8049   -2.9233   -2.4975 H         1 UNK         0.1312 
     82 H82        31.3641   -3.0164   -6.7563 H         1 UNK         0.1406 
     83 H83        28.9164   -5.5220   -4.3160 H         1 UNK         0.1631 
     84 H84        29.9799   -5.6989   -7.2864 H         1 UNK         0.0717 
     85 H85        29.5142   -4.0899   -7.7570 H         1 UNK         0.0717 
     86 H86        25.8603   -4.2346   -5.7597 H         1 UNK         0.0934 
     87 H87        27.3527   -3.5675   -5.2025 H         1 UNK         0.0934 
     88 H88        26.4313   -3.0465   -8.0759 H         1 UNK         0.0739 
     89 H89        24.8136   -2.2912   -5.9446 H         1 UNK         0.3093 
     90 H90        23.5362    0.7911   -7.1579 H         1 UNK         0.0818 
     91 H91        21.4179   -0.4908   -7.1097 H         1 UNK         0.0819 
     92 H92        22.3935   -0.9421   -8.4980 H         1 UNK         0.0819 
     93 H93        22.3075   -2.0127   -7.1094 H         1 UNK         0.0819 
     94 H94        23.4508    0.8044   -4.9773 H         1 UNK         0.3041 
     95 H95        22.5649    0.1574   -2.9392 H         1 UNK         0.0784 
     96 H96        21.7533   -2.1357   -2.3814 H         1 UNK         0.0793 
     97 H97        23.3940   -2.6504   -2.0155 H         1 UNK         0.0793 
     98 H98        22.6142   -1.4227   -1.0249 H         1 UNK         0.0793 
     99 H99        25.3378   -0.9435   -2.6751 H         1 UNK         0.3024 
    100 H100       26.8464    1.5705   -2.3524 H         1 UNK         0.1171 
    101 H101       25.9523    1.7480    0.5710 H         1 UNK         0.0786 
    102 H102       26.1004    3.0760   -0.5676 H         1 UNK         0.0786 
    103 H103       27.5394    2.2294   -0.0282 H         1 UNK         0.0786 
    104 H104       27.7753   -0.3962   -1.9070 H         1 UNK         0.2977 
    105 H105       27.5347   -1.2668   -5.1584 H         1 UNK         0.3127 
    106 H106       30.1264   -0.6840   -6.1424 H         1 UNK         0.0770 
    107 H107       28.5052    0.6762   -3.9284 H         1 UNK         0.0814 
    108 H108       30.2351    0.8547   -4.1750 H         1 UNK         0.0814 
    109 H109       29.5862   -0.7111   -3.7383 H         1 UNK         0.0814 
    110 H110       27.0908    1.0369   -6.5840 H         1 UNK         0.2983 
    111 H111       28.2582    3.5198   -7.5194 H         1 UNK         0.0947 
    112 H112       25.9327    4.0459   -8.2135 H         1 UNK         0.0806 
    113 H113       25.9611    3.4484   -6.5630 H         1 UNK         0.0806 
    114 H114       25.4235    2.4001   -7.8753 H         1 UNK         0.0806 
    115 H115       26.8350    0.6222   -9.1153 H         1 UNK         0.3000 
    116 H116       27.3181    1.4673  -11.7953 H         1 UNK         0.0850 
    117 H117       26.8409   -0.9346  -12.3312 H         1 UNK         0.0810 
    118 H118       25.6557   -0.2760  -11.2131 H         1 UNK         0.0810 
    119 H119       26.9281   -1.3397  -10.6205 H         1 UNK         0.0810 
    120 H120       29.2316   -0.5988   -9.5635 H         1 UNK         0.3040 
    121 H121       31.3589   -1.0814  -11.4598 H         1 UNK         0.0766 
    122 H122       32.4639   -2.0975   -9.4310 H         1 UNK         0.0812 
    123 H123       31.1422   -1.4835   -8.4435 H         1 UNK         0.0812 
    124 H124       30.8284   -2.6950   -9.6817 H         1 UNK         0.0812 
    125 H125       30.6638    1.5958   -9.4132 H         1 UNK         0.3205 
    126 H126       31.6167    3.5110   -8.9066 H         1 UNK         0.0754 
    127 H127       33.3686    4.4977  -10.3454 H         1 UNK         0.0769 
    128 H128       32.1362    3.7276  -11.3325 H         1 UNK         0.0769 
    129 H129       33.6945    2.9401  -11.0883 H         1 UNK         0.0769 
    130 H130       31.9485    1.9508   -6.9991 H         1 UNK         0.2981 
    131 H131       34.6216    2.4177   -5.9193 H         1 UNK         0.0541 
    132 H132       33.1005    1.9870   -2.5915 H         1 UNK         0.3459 
    133 H133       34.4203    1.2111   -3.4249 H         1 UNK         0.3459 
    134 H134       34.8553    0.0303   -5.0851 H         1 UNK         0.0612 
    135 H135       35.0242    0.2284   -6.7969 H         1 UNK         0.0612 
    136 H136       33.7532   -2.2344   -4.4125 H         1 UNK         0.0624 
    137 H137       32.5977   -0.9981   -3.9577 H         1 UNK         0.0624 
@<TRIPOS>BOND
     1    1    2 1    
     2    1   72 1    
     3    1   73 1    
     4    1   74 1    
     5    2    3 2    
     6    2    4 am   BACKBONE|DICT|INTERRES
     7    4    5 1    
     8    4   75 1    
     9    5    6 1    
    10    5   35 1    
    11    5   76 1    
    12    6    7 1    
    13    6   77 1    
    14    6   78 1    
    15    7    8 1    
    16    8    9 1    
    17    8   79 1    
    18    8   80 1    
    19    9   10 ar   
    20    9   14 ar   
    21   10   11 ar   
    22   10   81 1    
    23   11   12 ar   
    24   11   71 1    
    25   12   13 ar   
    26   12   82 1    
    27   13   14 ar   
    28   13   15 1    
    29   14   83 1    
    30   15   16 1    
    31   15   84 1    
    32   15   85 1    
    33   16   17 1    
    34   17   18 1    
    35   17   86 1    
    36   17   87 1    
    37   18   19 1    
    38   18   37 1    
    39   18   88 1    
    40   19   20 am   BACKBONE|DICT|INTERRES
    41   19   89 1    
    42   20   21 2    
    43   20   22 1    
    44   22   23 1    
    45   22   24 1    
    46   22   90 1    
    47   23   91 1    
    48   23   92 1    
    49   23   93 1    
    50   24   25 am   BACKBONE|DICT|INTERRES
    51   24   94 1    
    52   25   26 2    
    53   25   27 1    
    54   27   28 1    
    55   27   29 1    
    56   27   95 1    
    57   28   96 1    
    58   28   97 1    
    59   28   98 1    
    60   29   30 am   BACKBONE|DICT|INTERRES
    61   29   99 1    
    62   30   31 2    
    63   30   32 1    
    64   32   33 1    
    65   32   34 1    
    66   32  100 1    
    67   33  101 1    
    68   33  102 1    
    69   33  103 1    
    70   34   35 am   BACKBONE|DICT|INTERRES
    71   34  104 1    
    72   35   36 2    
    73   37   38 2    
    74   37   39 am   BACKBONE|DICT|INTERRES
    75   39   40 1    
    76   39  105 1    
    77   40   41 1    
    78   40   42 1    
    79   40  106 1    
    80   41  107 1    
    81   41  108 1    
    82   41  109 1    
    83   42   43 2    
    84   42   44 am   BACKBONE|DICT|INTERRES
    85   44   45 1    
    86   44  110 1    
    87   45   46 1    
    88   45   47 1    
    89   45  111 1    
    90   46  112 1    
    91   46  113 1    
    92   46  114 1    
    93   47   48 2    
    94   47   49 am   BACKBONE|DICT|INTERRES
    95   49   50 1    
    96   49  115 1    
    97   50   51 1    
    98   50   52 1    
    99   50  116 1    
   100   51  117 1    
   101   51  118 1    
   102   51  119 1    
   103   52   53 2    
   104   52   54 am   BACKBONE|DICT|INTERRES
   105   54   55 1    
   106   54  120 1    
   107   55   56 1    
   108   55   57 1    
   109   55  121 1    
   110   56  122 1    
   111   56  123 1    
   112   56  124 1    
   113   57   58 2    
   114   57   59 am   BACKBONE|DICT|INTERRES
   115   59   60 1    
   116   59  125 1    
   117   60   61 1    
   118   60   62 1    
   119   60  126 1    
   120   61  127 1    
   121   61  128 1    
   122   61  129 1    
   123   62   63 2    
   124   62   64 am   BACKBONE|DICT|INTERRES
   125   64   65 1    
   126   64  130 1    
   127   65   66 1    
   128   65   69 1    
   129   65  131 1    
   130   66   67 am   BACKBONE|DICT|INTERRES
   131   66   68 2    
   132   67  132 1    
   133   67  133 1    
   134   69   70 1    
   135   69  134 1    
   136   69  135 1    
   137   70   71 1    
   138   71  136 1    
   139   71  137 1    
@<TRIPOS>SUBSTRUCTURE
     1 UNK         1 GROUP             0       ****    0 ROOT    
