@<TRIPOS>MOLECULE
3R137
137   139    1
SMALL
USER_CHARGES


@<TRIPOS>ATOM
      1 CA         30.5383    0.2353    0.8597 C.3       0 UNK        -0.2020 
      2 C          29.7525   -0.6405   -0.1045 C.2       0 UNK         0.4855 
      3 O          29.4957   -0.2256   -1.2329 O.2       0 UNK        -0.5197 
      4 N          29.3791   -1.8507    0.3284 N.am      1 UNK        -0.4892 
      5 CA         28.5667   -2.8013   -0.4385 C.3       1 UNK         0.0835 
      6 C6         28.7778   -4.2429    0.0910 C.3       12 UNK        -0.0855 
      7 S7         28.4518   -5.5407   -1.1510 S.3       12 UNK        -0.2931 
      8 C8         30.0813   -5.7436   -1.9474 C.3       12 UNK         0.0378 
      9 C9         30.2168   -4.8233   -3.1508 C.ar      12 UNK        -0.0802 
     10 C10        30.8567   -3.5847   -3.0373 C.ar      12 UNK        -0.0944 
     11 C11        30.9097   -2.7060   -4.1246 C.ar      12 UNK        -0.0787 
     12 C12        30.3314   -3.0947   -5.3383 C.ar      12 UNK        -0.0862 
     13 C13        29.7217   -4.3445   -5.4770 C.ar      12 UNK        -0.0733 
     14 C14        29.6714   -5.2066   -4.3792 C.ar      12 UNK        -0.0832 
     15 C15        29.1195   -4.7552   -6.8150 C.3       12 UNK         0.0240 
     16 S16        27.3424   -5.1590   -6.7284 S.3       12 UNK        -0.2522 
     17 C17        26.6094   -3.6967   -5.9215 C.3       12 UNK        -0.0967 
     18 CA         26.3400   -2.5199   -6.8965 C.3       5 UNK         0.0660 
     19 N          25.0933   -1.8216   -6.5781 N.am      5 UNK        -0.4015 
     20 C          24.4919   -0.9215   -7.3682 C.2       4 UNK         0.4946 
     21 O          24.8940   -0.6100   -8.4893 O.2       4 UNK        -0.5353 
     22 CA         23.2505   -0.2231   -6.7882 C.3       4 UNK         0.0277 
     23 CB         21.9938   -1.0815   -7.0038 C.3       4 UNK        -0.1981 
     24 N          23.3954    0.0941   -5.3638 N.am      4 UNK        -0.4209 
     25 C          24.2696    0.9894   -4.8827 C.2       3 UNK         0.4942 
     26 O          25.0162    1.6642   -5.5910 O.2       3 UNK        -0.5208 
     27 CA         24.3547    1.1300   -3.3532 C.3       3 UNK         0.0250 
     28 CB         23.2613    2.0799   -2.8382 C.3       3 UNK        -0.1990 
     29 N          24.2954   -0.1382   -2.6135 N.am      3 UNK        -0.4232 
     30 C          25.1375   -1.1673   -2.7818 C.2       2 UNK         0.4993 
     31 O          25.9802   -1.2274   -3.6800 O.2       2 UNK        -0.5286 
     32 CA         25.0068   -2.3462   -1.8088 C.3       2 UNK         0.0209 
     33 CB         24.1987   -3.4874   -2.4465 C.3       2 UNK        -0.1931 
     34 N          26.3477   -2.8296   -1.4800 N.am      2 UNK        -0.4546 
     35 C          27.0822   -2.3761   -0.4578 C.2       1 UNK         0.5154 
     36 O          26.6318   -1.6550    0.4379 O.2       1 UNK        -0.5181 
     37 C          27.5174   -1.5294   -6.9297 C.2       5 UNK         0.5014 
     38 O          28.2898   -1.5332   -7.8880 O.2       5 UNK        -0.5248 
     39 N          27.6041   -0.6738   -5.9005 N.am      6 UNK        -0.4434 
     40 CA         28.6016    0.3866   -5.7647 C.3       6 UNK         0.0363 
     41 CB         28.4149    1.1028   -4.4196 C.3       6 UNK        -0.1936 
     42 C          28.5764    1.3910   -6.9235 C.2       6 UNK         0.5081 
     43 O          29.6415    1.7599   -7.4179 O.2       6 UNK        -0.5248 
     44 N          27.3705    1.7837   -7.3563 N.am      7 UNK        -0.4718 
     45 CA         27.1464    2.6326   -8.5261 C.3       7 UNK         0.0273 
     46 CB         25.6756    3.0765   -8.5681 C.3       7 UNK        -0.1935 
     47 C          27.5476    1.9479   -9.8430 C.2       7 UNK         0.5018 
     48 O          28.1933    2.5860  -10.6744 O.2       7 UNK        -0.5186 
     49 N          27.1753    0.6690  -10.0054 N.am      8 UNK        -0.4240 
     50 CA         27.4896   -0.1420  -11.1856 C.3       8 UNK         0.0235 
     51 CB         26.6876   -1.4531  -11.1467 C.3       8 UNK        -0.2000 
     52 C          28.9924   -0.4281  -11.3403 C.2       8 UNK         0.4941 
     53 O          29.5231   -0.2879  -12.4429 O.2       8 UNK        -0.5273 
     54 N          29.6507   -0.8152  -10.2395 N.am      9 UNK        -0.4262 
     55 CA         31.0882   -1.0984  -10.1927 C.3       9 UNK         0.0264 
     56 CB         31.3858   -1.9715   -8.9660 C.3       9 UNK        -0.1955 
     57 C          31.9637    0.1660  -10.1581 C.2       9 UNK         0.5031 
     58 O          33.1531    0.0684  -10.4639 O.2       9 UNK        -0.5390 
     59 N          31.3739    1.3071   -9.7717 N.am      10 UNK        -0.4204 
     60 CA         32.0080    2.6057   -9.5277 C.3       10 UNK         0.0237 
     61 CB         32.6161    3.1907  -10.8210 C.3       10 UNK        -0.1985 
     62 C          33.0019    2.5353   -8.3531 C.2       10 UNK         0.4970 
     63 O          34.1703    2.8979   -8.5058 O.2       10 UNK        -0.4914 
     64 N          32.5109    2.0620   -7.1990 N.am      11 UNK        -0.4285 
     65 CA         33.2738    1.9755   -5.9401 C.3       11 UNK         0.1007 
     66 C          33.6329    3.3539   -5.3091 C.2       11 UNK         0.5703 
     67 N          32.9749    4.4480   -5.6760 N.am      11 UNK        -0.7361 
     68 O          34.5304    3.4302   -4.4733 O.2       11 UNK        -0.4986 
     69 C69        32.5744    1.0749   -4.8874 C.3       12 UNK        -0.0947 
     70 S70        32.3879   -0.6608   -5.4075 S.3       12 UNK        -0.2240 
     71 C71        31.5221   -1.3184   -3.9389 C.3       12 UNK         0.0194 
     72 H72        30.7136   -0.2615    1.8138 H         1 UNK         0.0906 
     73 H73        31.5054    0.4926    0.4285 H         1 UNK         0.0906 
     74 H74        29.9947    1.1596    1.0531 H         1 UNK         0.0906 
     75 H75        29.5797   -2.1165    1.2820 H         1 UNK         0.3140 
     76 H76        28.9104   -2.7522   -1.4716 H         1 UNK         0.1085 
     77 H77        29.8038   -4.3714    0.4397 H         1 UNK         0.0836 
     78 H78        28.1536   -4.4310    0.9670 H         1 UNK         0.0836 
     79 H79        30.8866   -5.5715   -1.2318 H         1 UNK         0.0731 
     80 H80        30.1849   -6.7805   -2.2710 H         1 UNK         0.0731 
     81 H81        31.2763   -3.2859   -2.0861 H         1 UNK         0.1312 
     82 H82        30.3431   -2.4177   -6.1783 H         1 UNK         0.1406 
     83 H83        29.1805   -6.1660   -4.4748 H         1 UNK         0.1631 
     84 H84        29.6567   -5.6282   -7.1875 H         1 UNK         0.0717 
     85 H85        29.2611   -3.9753   -7.5624 H         1 UNK         0.0717 
     86 H86        25.6652   -4.0512   -5.5071 H         1 UNK         0.0934 
     87 H87        27.1992   -3.3973   -5.0525 H         1 UNK         0.0934 
     88 H88        26.2201   -2.9197   -7.9059 H         1 UNK         0.0739 
     89 H89        24.7329   -1.9536   -5.6449 H         1 UNK         0.3093 
     90 H90        23.1188    0.7160   -7.3304 H         1 UNK         0.0818 
     91 H91        21.0956   -0.5594   -6.6735 H         1 UNK         0.0819 
     92 H92        21.8596   -1.3151   -8.0610 H         1 UNK         0.0819 
     93 H93        22.0495   -2.0286   -6.4656 H         1 UNK         0.0819 
     94 H94        22.8114   -0.4100   -4.7123 H         1 UNK         0.3041 
     95 H95        25.3229    1.5819   -3.1286 H         1 UNK         0.0784 
     96 H96        23.2968    3.0364   -3.3621 H         1 UNK         0.0793 
     97 H97        22.2626    1.6660   -2.9832 H         1 UNK         0.0793 
     98 H98        23.3868    2.2917   -1.7761 H         1 UNK         0.0793 
     99 H99        23.6177   -0.1853   -1.8658 H         1 UNK         0.3024 
    100 H100       24.4940   -2.0160   -0.9023 H         1 UNK         0.1171 
    101 H101       23.1936   -3.1568   -2.7113 H         1 UNK         0.0786 
    102 H102       24.0920   -4.3259   -1.7578 H         1 UNK         0.0786 
    103 H103       24.6707   -3.8624   -3.3543 H         1 UNK         0.0786 
    104 H104       26.7979   -3.4029   -2.1795 H         1 UNK         0.2977 
    105 H105       26.9457   -0.7782   -5.1284 H         1 UNK         0.3127 
    106 H106       29.5793   -0.0922   -5.7713 H         1 UNK         0.0770 
    107 H107       27.4628    1.6307   -4.3722 H         1 UNK         0.0814 
    108 H108       29.2030    1.8373   -4.2529 H         1 UNK         0.0814 
    109 H109       28.4435    0.3977   -3.5893 H         1 UNK         0.0814 
    110 H110       26.5467    1.4858   -6.8408 H         1 UNK         0.2983 
    111 H111       27.7682    3.5237   -8.4148 H         1 UNK         0.0947 
    112 H112       25.4858    3.7225   -9.4263 H         1 UNK         0.0806 
    113 H113       25.4066    3.6380   -7.6731 H         1 UNK         0.0806 
    114 H114       24.9982    2.2249   -8.6421 H         1 UNK         0.0806 
    115 H115       26.6122    0.2268   -9.2854 H         1 UNK         0.3000 
    116 H116       27.1710    0.4206  -12.0658 H         1 UNK         0.0850 
    117 H117       26.8996   -2.0679  -12.0224 H         1 UNK         0.0810 
    118 H118       25.6147   -1.2600  -11.1383 H         1 UNK         0.0810 
    119 H119       26.9257   -2.0473  -10.2639 H         1 UNK         0.0810 
    120 H120       29.1252   -0.9606   -9.3764 H         1 UNK         0.3040 
    121 H121       31.3604   -1.6631  -11.0869 H         1 UNK         0.0766 
    122 H122       32.4446   -2.2283   -8.9105 H         1 UNK         0.0812 
    123 H123       30.8256   -2.9052   -8.9974 H         1 UNK         0.0812 
    124 H124       31.1285   -1.4487   -8.0456 H         1 UNK         0.0812 
    125 H125       30.4040    1.2514   -9.4861 H         1 UNK         0.3205 
    126 H126       31.2080    3.2781   -9.2136 H         1 UNK         0.0754 
    127 H127       32.9806    4.2049  -10.6536 H         1 UNK         0.0769 
    128 H128       31.8744    3.2399  -11.6183 H         1 UNK         0.0769 
    129 H129       33.4586    2.6005  -11.1823 H         1 UNK         0.0769 
    130 H130       31.5264    1.8115   -7.1586 H         1 UNK         0.2981 
    131 H131       34.2289    1.5058   -6.1828 H         1 UNK         0.0541 
    132 H132       32.2327    4.3956   -6.3545 H         1 UNK         0.3459 
    133 H133       33.2209    5.3334   -5.2625 H         1 UNK         0.3459 
    134 H134       31.5885    1.4761   -4.6481 H         1 UNK         0.0612 
    135 H135       33.1383    1.0690   -3.9524 H         1 UNK         0.0612 
    136 H136       32.2256   -1.3251   -3.1049 H         1 UNK         0.0624 
    137 H137       30.7212   -0.6343   -3.6595 H         1 UNK         0.0624 
@<TRIPOS>BOND
     1    1    2 1    
     2    1   72 1    
     3    1   73 1    
     4    1   74 1    
     5    2    3 2    
     6    2    4 am   BACKBONE|DICT|INTERRES
     7    4    5 1    
     8    4   75 1    
     9    5    6 1    
    10    5   35 1    
    11    5   76 1    
    12    6    7 1    
    13    6   77 1    
    14    6   78 1    
    15    7    8 1    
    16    8    9 1    
    17    8   79 1    
    18    8   80 1    
    19    9   10 ar   
    20    9   14 ar   
    21   10   11 ar   
    22   10   81 1    
    23   11   12 ar   
    24   11   71 1    
    25   12   13 ar   
    26   12   82 1    
    27   13   14 ar   
    28   13   15 1    
    29   14   83 1    
    30   15   16 1    
    31   15   84 1    
    32   15   85 1    
    33   16   17 1    
    34   17   18 1    
    35   17   86 1    
    36   17   87 1    
    37   18   19 1    
    38   18   37 1    
    39   18   88 1    
    40   19   20 am   BACKBONE|DICT|INTERRES
    41   19   89 1    
    42   20   21 2    
    43   20   22 1    
    44   22   23 1    
    45   22   24 1    
    46   22   90 1    
    47   23   91 1    
    48   23   92 1    
    49   23   93 1    
    50   24   25 am   BACKBONE|DICT|INTERRES
    51   24   94 1    
    52   25   26 2    
    53   25   27 1    
    54   27   28 1    
    55   27   29 1    
    56   27   95 1    
    57   28   96 1    
    58   28   97 1    
    59   28   98 1    
    60   29   30 am   BACKBONE|DICT|INTERRES
    61   29   99 1    
    62   30   31 2    
    63   30   32 1    
    64   32   33 1    
    65   32   34 1    
    66   32  100 1    
    67   33  101 1    
    68   33  102 1    
    69   33  103 1    
    70   34   35 am   BACKBONE|DICT|INTERRES
    71   34  104 1    
    72   35   36 2    
    73   37   38 2    
    74   37   39 am   BACKBONE|DICT|INTERRES
    75   39   40 1    
    76   39  105 1    
    77   40   41 1    
    78   40   42 1    
    79   40  106 1    
    80   41  107 1    
    81   41  108 1    
    82   41  109 1    
    83   42   43 2    
    84   42   44 am   BACKBONE|DICT|INTERRES
    85   44   45 1    
    86   44  110 1    
    87   45   46 1    
    88   45   47 1    
    89   45  111 1    
    90   46  112 1    
    91   46  113 1    
    92   46  114 1    
    93   47   48 2    
    94   47   49 am   BACKBONE|DICT|INTERRES
    95   49   50 1    
    96   49  115 1    
    97   50   51 1    
    98   50   52 1    
    99   50  116 1    
   100   51  117 1    
   101   51  118 1    
   102   51  119 1    
   103   52   53 2    
   104   52   54 am   BACKBONE|DICT|INTERRES
   105   54   55 1    
   106   54  120 1    
   107   55   56 1    
   108   55   57 1    
   109   55  121 1    
   110   56  122 1    
   111   56  123 1    
   112   56  124 1    
   113   57   58 2    
   114   57   59 am   BACKBONE|DICT|INTERRES
   115   59   60 1    
   116   59  125 1    
   117   60   61 1    
   118   60   62 1    
   119   60  126 1    
   120   61  127 1    
   121   61  128 1    
   122   61  129 1    
   123   62   63 2    
   124   62   64 am   BACKBONE|DICT|INTERRES
   125   64   65 1    
   126   64  130 1    
   127   65   66 1    
   128   65   69 1    
   129   65  131 1    
   130   66   67 am   BACKBONE|DICT|INTERRES
   131   66   68 2    
   132   67  132 1    
   133   67  133 1    
   134   69   70 1    
   135   69  134 1    
   136   69  135 1    
   137   70   71 1    
   138   71  136 1    
   139   71  137 1    
@<TRIPOS>SUBSTRUCTURE
     1 UNK         1 GROUP             0       ****    0 ROOT    
