@<TRIPOS>MOLECULE
3R137
137   139    1
SMALL
USER_CHARGES


@<TRIPOS>ATOM
      1 CA         30.3939   -4.9006   -1.6192 C.3       0 UNK        -0.2020 
      2 C          29.3565   -3.9792   -0.9957 C.2       0 UNK         0.4855 
      3 O          28.7141   -4.3509   -0.0139 O.2       0 UNK        -0.5197 
      4 N          29.1914   -2.7768   -1.5616 N.am      1 UNK        -0.4892 
      5 CA         28.2887   -1.7185   -1.0816 C.3       1 UNK         0.0835 
      6 C6         28.5799   -0.3508   -1.7524 C.3       12 UNK        -0.0855 
      7 S7         30.3491    0.1121   -1.7237 S.3       12 UNK        -0.2931 
      8 C8         30.7637    0.1714   -3.4974 C.3       12 UNK         0.0378 
      9 C9         31.0248   -1.2063   -4.0911 C.ar      12 UNK        -0.0802 
     10 C10        32.3378   -1.6614   -4.2252 C.ar      12 UNK        -0.0944 
     11 C11        32.6106   -2.9093   -4.7996 C.ar      12 UNK        -0.0787 
     12 C12        31.5419   -3.7193   -5.1937 C.ar      12 UNK        -0.0862 
     13 C13        30.2199   -3.2945   -5.0353 C.ar      12 UNK        -0.0733 
     14 C14        29.9704   -2.0206   -4.5162 C.ar      12 UNK        -0.0832 
     15 C15        29.0766   -4.2458   -5.3685 C.3       12 UNK         0.0240 
     16 S16        28.1240   -3.7301   -6.8277 S.3       12 UNK        -0.2522 
     17 C17        26.7556   -2.7972   -6.0703 C.3       12 UNK        -0.0967 
     18 CA         26.3852   -1.5221   -6.8605 C.3       5 UNK         0.0660 
     19 N          24.9732   -1.1808   -6.6690 N.am      5 UNK        -0.4015 
     20 C          24.3201   -0.2174   -7.3343 C.2       4 UNK         0.4946 
     21 O          24.8208    0.4110   -8.2680 O.2       4 UNK        -0.5353 
     22 CA         22.9112    0.1666   -6.8444 C.3       4 UNK         0.0277 
     23 CB         21.8442   -0.4304   -7.7749 C.3       4 UNK        -0.1981 
     24 N          22.6159   -0.2167   -5.4573 N.am      4 UNK        -0.4209 
     25 C          23.3170    0.1392   -4.3693 C.2       3 UNK         0.4942 
     26 O          24.3153    0.8585   -4.4059 O.2       3 UNK        -0.5208 
     27 CA         22.8787   -0.4572   -3.0184 C.3       3 UNK         0.0250 
     28 CB         21.4401   -1.0227   -3.0229 C.3       3 UNK        -0.1990 
     29 N          23.8175   -1.4776   -2.5313 N.am      3 UNK        -0.4232 
     30 C          24.2512   -2.5661   -3.1839 C.2       2 UNK         0.4993 
     31 O          23.9916   -2.8078   -4.3652 O.2       2 UNK        -0.5286 
     32 CA         25.1295   -3.5430   -2.3783 C.3       2 UNK         0.0209 
     33 CB         25.2627   -4.9159   -3.0647 C.3       2 UNK        -0.1931 
     34 N          26.4717   -3.0173   -2.1248 N.am      2 UNK        -0.4546 
     35 C          26.7908   -2.0718   -1.2301 C.2       1 UNK         0.5154 
     36 O          25.9558   -1.4858   -0.5387 O.2       1 UNK        -0.5181 
     37 C          27.3402   -0.3373   -6.5713 C.2       5 UNK         0.5014 
     38 O          28.4213   -0.2803   -7.1598 O.2       5 UNK        -0.5248 
     39 N          26.9131    0.6285   -5.7399 N.am      6 UNK        -0.4434 
     40 CA         27.6085    1.9014   -5.5209 C.3       6 UNK         0.0363 
     41 CB         27.0620    2.5798   -4.2548 C.3       6 UNK        -0.1936 
     42 C          27.5693    2.8630   -6.7232 C.2       6 UNK         0.5081 
     43 O          28.3111    3.8447   -6.7118 O.2       6 UNK        -0.5248 
     44 N          26.7383    2.5744   -7.7326 N.am      7 UNK        -0.4718 
     45 CA         26.7502    3.2427   -9.0322 C.3       7 UNK         0.0273 
     46 CB         25.3236    3.6873   -9.3966 C.3       7 UNK        -0.1935 
     47 C          27.3231    2.3108  -10.1109 C.2       7 UNK         0.5018 
     48 O          28.1284    2.7637  -10.9245 O.2       7 UNK        -0.5186 
     49 N          26.8923    1.0392  -10.1140 N.am      8 UNK        -0.4240 
     50 CA         27.2354    0.0558  -11.1452 C.3       8 UNK         0.0235 
     51 CB         26.2721   -1.1398  -11.0699 C.3       8 UNK        -0.2000 
     52 C          28.6990   -0.4177  -11.1108 C.2       8 UNK         0.4941 
     53 O          29.2959   -0.5576  -12.1795 O.2       8 UNK        -0.5273 
     54 N          29.2473   -0.6633   -9.9124 N.am      9 UNK        -0.4262 
     55 CA         30.6433   -1.0650   -9.7142 C.3       9 UNK         0.0264 
     56 CB         30.7263   -2.2873   -8.7843 C.3       9 UNK        -0.1955 
     57 C          31.4447    0.1078   -9.1448 C.2       9 UNK         0.5031 
     58 O          32.4426    0.5020   -9.7495 O.2       9 UNK        -0.5390 
     59 N          30.9780    0.6483   -8.0072 N.am      10 UNK        -0.4204 
     60 CA         31.5029    1.8287   -7.3086 C.3       10 UNK         0.0237 
     61 CB         31.2027    3.0953   -8.1401 C.3       10 UNK        -0.1985 
     62 C          32.9962    1.7300   -6.9230 C.2       10 UNK         0.4970 
     63 O          33.6980    2.7430   -6.9692 O.2       10 UNK        -0.4914 
     64 N          33.4686    0.5223   -6.5772 N.am      11 UNK        -0.4285 
     65 CA         34.8780    0.2552   -6.2442 C.3       11 UNK         0.1007 
     66 C          35.3583    0.9589   -4.9389 C.2       11 UNK         0.5703 
     67 N          36.6591    1.1788   -4.7991 N.am      11 UNK        -0.7361 
     68 O          34.5736    1.2828   -4.0487 O.2       11 UNK        -0.4986 
     69 C69        35.2270   -1.2650   -6.3578 C.3       12 UNK        -0.0947 
     70 S70        35.3771   -2.2320   -4.8098 S.3       12 UNK        -0.2240 
     71 C71        34.0298   -3.4521   -4.9716 C.3       12 UNK         0.0194 
     72 H72        29.9033   -5.7036   -2.1685 H         1 UNK         0.0906 
     73 H73        31.0505   -4.3664   -2.3058 H         1 UNK         0.0906 
     74 H74        31.0153   -5.3475   -0.8436 H         1 UNK         0.0906 
     75 H75        29.7972   -2.5077   -2.3260 H         1 UNK         0.3140 
     76 H76        28.4730   -1.6079   -0.0105 H         1 UNK         0.1085 
     77 H77        28.2090   -0.3294   -2.7776 H         1 UNK         0.0836 
     78 H78        28.0307    0.4371   -1.2328 H         1 UNK         0.0836 
     79 H79        29.9646    0.6658   -4.0397 H         1 UNK         0.0731 
     80 H80        31.6446    0.8034   -3.6249 H         1 UNK         0.0731 
     81 H81        33.1425   -1.0294   -3.8785 H         1 UNK         0.1312 
     82 H82        31.7427   -4.6998   -5.6040 H         1 UNK         0.1406 
     83 H83        28.9545   -1.6727   -4.4211 H         1 UNK         0.1631 
     84 H84        28.4204   -4.3546   -4.5046 H         1 UNK         0.0717 
     85 H85        29.4669   -5.2456   -5.5649 H         1 UNK         0.0717 
     86 H86        25.9093   -3.4859   -6.0667 H         1 UNK         0.0934 
     87 H87        26.9503   -2.5710   -5.0222 H         1 UNK         0.0934 
     88 H88        26.4913   -1.7480   -7.9211 H         1 UNK         0.0739 
     89 H89        24.4918   -1.6644   -5.9149 H         1 UNK         0.3093 
     90 H90        22.8447    1.2551   -6.8994 H         1 UNK         0.0818 
     91 H91        20.8458   -0.0806   -7.5119 H         1 UNK         0.0819 
     92 H92        22.0233   -0.1401   -8.8114 H         1 UNK         0.0819 
     93 H93        21.8407   -1.5206   -7.7380 H         1 UNK         0.0819 
     94 H94        21.8376   -0.8461   -5.3233 H         1 UNK         0.3041 
     95 H95        22.9098    0.3643   -2.3010 H         1 UNK         0.0784 
     96 H96        20.7216   -0.2767   -3.3661 H         1 UNK         0.0793 
     97 H97        21.3408   -1.9029   -3.6594 H         1 UNK         0.0793 
     98 H98        21.1360   -1.3143   -2.0174 H         1 UNK         0.0793 
     99 H99        24.1963   -1.3222   -1.6022 H         1 UNK         0.3024 
    100 H100       24.6332   -3.7039   -1.4182 H         1 UNK         0.1171 
    101 H101       25.7996   -5.6237   -2.4327 H         1 UNK         0.0786 
    102 H102       25.7915   -4.8493   -4.0156 H         1 UNK         0.0786 
    103 H103       24.2814   -5.3470   -3.2682 H         1 UNK         0.0786 
    104 H104       27.2304   -3.4542   -2.6248 H         1 UNK         0.2977 
    105 H105       25.9951    0.5493   -5.3069 H         1 UNK         0.3127 
    106 H106       28.6617    1.6847   -5.3625 H         1 UNK         0.0770 
    107 H107       26.0258    2.8941   -4.3831 H         1 UNK         0.0814 
    108 H108       27.6417    3.4704   -4.0088 H         1 UNK         0.0814 
    109 H109       27.1076    1.9158   -3.3920 H         1 UNK         0.0814 
    110 H110       26.1389    1.7598   -7.6577 H         1 UNK         0.2983 
    111 H111       27.3811    4.1340   -9.0009 H         1 UNK         0.0947 
    112 H112       25.3084    4.1922  -10.3635 H         1 UNK         0.0806 
    113 H113       24.9293    4.3871   -8.6597 H         1 UNK         0.0806 
    114 H114       24.6343    2.8445   -9.4580 H         1 UNK         0.0806 
    115 H115       26.1812    0.7650   -9.4392 H         1 UNK         0.3000 
    116 H116       27.0778    0.5389  -12.1123 H         1 UNK         0.0850 
    117 H117       26.4389   -1.8233  -11.9035 H         1 UNK         0.0810 
    118 H118       25.2316   -0.8179  -11.1185 H         1 UNK         0.0810 
    119 H119       26.4036   -1.7134  -10.1542 H         1 UNK         0.0810 
    120 H120       28.7060   -0.4932   -9.0704 H         1 UNK         0.3040 
    121 H121       31.0990   -1.3485  -10.6653 H         1 UNK         0.0766 
    122 H122       31.7588   -2.6190   -8.6678 H         1 UNK         0.0812 
    123 H123       30.3445   -2.0719   -7.7867 H         1 UNK         0.0812 
    124 H124       30.1589   -3.1275   -9.1842 H         1 UNK         0.0812 
    125 H125       30.1338    0.2412   -7.6059 H         1 UNK         0.3205 
    126 H126       30.9475    1.9030   -6.3731 H         1 UNK         0.0754 
    127 H127       31.3740    3.9991   -7.5542 H         1 UNK         0.0769 
    128 H128       30.1663    3.1179   -8.4755 H         1 UNK         0.0769 
    129 H129       31.8345    3.1540   -9.0272 H         1 UNK         0.0769 
    130 H130       32.8352   -0.2611   -6.5286 H         1 UNK         0.2981 
    131 H131       35.4380    0.7412   -7.0464 H         1 UNK         0.0541 
    132 H132       37.3149    0.9003   -5.5122 H         1 UNK         0.3459 
    133 H133       36.9921    1.6224   -3.9576 H         1 UNK         0.3459 
    134 H134       36.1984   -1.3538   -6.8465 H         1 UNK         0.0612 
    135 H135       34.5348   -1.7682   -7.0348 H         1 UNK         0.0612 
    136 H136       34.1220   -3.9430   -5.9417 H         1 UNK         0.0624 
    137 H137       34.1878   -4.2261   -4.2195 H         1 UNK         0.0624 
@<TRIPOS>BOND
     1    1    2 1    
     2    1   72 1    
     3    1   73 1    
     4    1   74 1    
     5    2    3 2    
     6    2    4 am   BACKBONE|DICT|INTERRES
     7    4    5 1    
     8    4   75 1    
     9    5    6 1    
    10    5   35 1    
    11    5   76 1    
    12    6    7 1    
    13    6   77 1    
    14    6   78 1    
    15    7    8 1    
    16    8    9 1    
    17    8   79 1    
    18    8   80 1    
    19    9   10 ar   
    20    9   14 ar   
    21   10   11 ar   
    22   10   81 1    
    23   11   12 ar   
    24   11   71 1    
    25   12   13 ar   
    26   12   82 1    
    27   13   14 ar   
    28   13   15 1    
    29   14   83 1    
    30   15   16 1    
    31   15   84 1    
    32   15   85 1    
    33   16   17 1    
    34   17   18 1    
    35   17   86 1    
    36   17   87 1    
    37   18   19 1    
    38   18   37 1    
    39   18   88 1    
    40   19   20 am   BACKBONE|DICT|INTERRES
    41   19   89 1    
    42   20   21 2    
    43   20   22 1    
    44   22   23 1    
    45   22   24 1    
    46   22   90 1    
    47   23   91 1    
    48   23   92 1    
    49   23   93 1    
    50   24   25 am   BACKBONE|DICT|INTERRES
    51   24   94 1    
    52   25   26 2    
    53   25   27 1    
    54   27   28 1    
    55   27   29 1    
    56   27   95 1    
    57   28   96 1    
    58   28   97 1    
    59   28   98 1    
    60   29   30 am   BACKBONE|DICT|INTERRES
    61   29   99 1    
    62   30   31 2    
    63   30   32 1    
    64   32   33 1    
    65   32   34 1    
    66   32  100 1    
    67   33  101 1    
    68   33  102 1    
    69   33  103 1    
    70   34   35 am   BACKBONE|DICT|INTERRES
    71   34  104 1    
    72   35   36 2    
    73   37   38 2    
    74   37   39 am   BACKBONE|DICT|INTERRES
    75   39   40 1    
    76   39  105 1    
    77   40   41 1    
    78   40   42 1    
    79   40  106 1    
    80   41  107 1    
    81   41  108 1    
    82   41  109 1    
    83   42   43 2    
    84   42   44 am   BACKBONE|DICT|INTERRES
    85   44   45 1    
    86   44  110 1    
    87   45   46 1    
    88   45   47 1    
    89   45  111 1    
    90   46  112 1    
    91   46  113 1    
    92   46  114 1    
    93   47   48 2    
    94   47   49 am   BACKBONE|DICT|INTERRES
    95   49   50 1    
    96   49  115 1    
    97   50   51 1    
    98   50   52 1    
    99   50  116 1    
   100   51  117 1    
   101   51  118 1    
   102   51  119 1    
   103   52   53 2    
   104   52   54 am   BACKBONE|DICT|INTERRES
   105   54   55 1    
   106   54  120 1    
   107   55   56 1    
   108   55   57 1    
   109   55  121 1    
   110   56  122 1    
   111   56  123 1    
   112   56  124 1    
   113   57   58 2    
   114   57   59 am   BACKBONE|DICT|INTERRES
   115   59   60 1    
   116   59  125 1    
   117   60   61 1    
   118   60   62 1    
   119   60  126 1    
   120   61  127 1    
   121   61  128 1    
   122   61  129 1    
   123   62   63 2    
   124   62   64 am   BACKBONE|DICT|INTERRES
   125   64   65 1    
   126   64  130 1    
   127   65   66 1    
   128   65   69 1    
   129   65  131 1    
   130   66   67 am   BACKBONE|DICT|INTERRES
   131   66   68 2    
   132   67  132 1    
   133   67  133 1    
   134   69   70 1    
   135   69  134 1    
   136   69  135 1    
   137   70   71 1    
   138   71  136 1    
   139   71  137 1    
@<TRIPOS>SUBSTRUCTURE
     1 UNK         1 GROUP             0       ****    0 ROOT    
