@<TRIPOS>MOLECULE
3R137
137   139    1
SMALL
USER_CHARGES


@<TRIPOS>ATOM
      1 CA         25.9112   -2.1716    3.2374 C.3       0 UNK        -0.2020 
      2 C          26.8312   -2.1252    2.0265 C.2       0 UNK         0.4855 
      3 O          28.0336   -2.3531    2.1612 O.2       0 UNK        -0.5197 
      4 N          26.2781   -1.8314    0.8464 N.am      1 UNK        -0.4892 
      5 CA         26.9965   -1.7198   -0.4193 C.3       1 UNK         0.0835 
      6 C6         27.1999   -3.1094   -1.0758 C.3       12 UNK        -0.0855 
      7 S7         27.9997   -3.0520   -2.7135 S.3       12 UNK        -0.2931 
      8 C8         29.6285   -3.7998   -2.3721 C.3       12 UNK         0.0378 
      9 C9         30.4180   -3.9229   -3.6659 C.ar      12 UNK        -0.0802 
     10 C10        31.5492   -3.1360   -3.9056 C.ar      12 UNK        -0.0944 
     11 C11        32.1886   -3.1730   -5.1502 C.ar      12 UNK        -0.0787 
     12 C12        31.6856   -4.0094   -6.1549 C.ar      12 UNK        -0.0862 
     13 C13        30.5563   -4.7992   -5.9223 C.ar      12 UNK        -0.0733 
     14 C14        29.9599   -4.7863   -4.6610 C.ar      12 UNK        -0.0832 
     15 C15        29.9471   -5.6312   -7.0406 C.3       12 UNK         0.0240 
     16 S16        28.8149   -4.6453   -8.0805 S.3       12 UNK        -0.2522 
     17 C17        27.4072   -4.3022   -6.9548 C.3       12 UNK        -0.0967 
     18 CA         26.7673   -2.8839   -7.0641 C.3       5 UNK         0.0660 
     19 N          25.7605   -2.6114   -6.0317 N.am      5 UNK        -0.4015 
     20 C          24.6286   -3.3147   -5.8693 C.2       4 UNK         0.4946 
     21 O          24.3159   -4.2823   -6.5643 O.2       4 UNK        -0.5353 
     22 CA         23.6605   -2.8794   -4.7530 C.3       4 UNK         0.0277 
     23 CB         23.9978   -3.6026   -3.4416 C.3       4 UNK        -0.1981 
     24 N          23.6388   -1.4365   -4.5171 N.am      4 UNK        -0.4209 
     25 C          23.2180   -0.5247   -5.4055 C.2       3 UNK         0.4942 
     26 O          22.7356   -0.8135   -6.5012 O.2       3 UNK        -0.5208 
     27 CA         23.3573    0.9623   -5.0269 C.3       3 UNK         0.0250 
     28 CB         21.9796    1.5663   -4.7080 C.3       3 UNK        -0.1990 
     29 N          24.2679    1.2477   -3.9119 N.am      3 UNK        -0.4232 
     30 C          25.5705    0.9393   -3.8518 C.2       2 UNK         0.4993 
     31 O          26.1625    0.3091   -4.7301 O.2       2 UNK        -0.5286 
     32 CA         26.3515    1.4056   -2.6090 C.3       2 UNK         0.0209 
     33 CB         25.5640    2.3655   -1.6866 C.3       2 UNK        -0.1931 
     34 N          26.8880    0.2803   -1.8333 N.am      2 UNK        -0.4546 
     35 C          26.1950   -0.7268   -1.2807 C.2       1 UNK         0.5154 
     36 O          24.9747   -0.8768   -1.3968 O.2       1 UNK        -0.5181 
     37 C          27.7998   -1.7439   -7.0938 C.2       5 UNK         0.5014 
     38 O          28.0416   -1.2007   -8.1714 O.2       5 UNK        -0.5248 
     39 N          28.3723   -1.3872   -5.9322 N.am      6 UNK        -0.4434 
     40 CA         29.4809   -0.4321   -5.7726 C.3       6 UNK         0.0363 
     41 CB         29.7170   -0.1593   -4.2801 C.3       6 UNK        -0.1936 
     42 C          29.3244    0.9128   -6.5019 C.2       6 UNK         0.5081 
     43 O          30.2967    1.4091   -7.0728 O.2       6 UNK        -0.5248 
     44 N          28.1121    1.4795   -6.4704 N.am      7 UNK        -0.4718 
     45 CA         27.7807    2.7486   -7.1231 C.3       7 UNK         0.0273 
     46 CB         26.4609    3.2884   -6.5513 C.3       7 UNK        -0.1935 
     47 C          27.6984    2.6424   -8.6557 C.2       7 UNK         0.5018 
     48 O          27.9964    3.6216   -9.3397 O.2       7 UNK        -0.5186 
     49 N          27.3049    1.4684   -9.1677 N.am      8 UNK        -0.4240 
     50 CA         27.2307    1.1728  -10.6005 C.3       8 UNK         0.0235 
     51 CB         26.1814    0.0762  -10.8482 C.3       8 UNK        -0.2000 
     52 C          28.6012    0.7540  -11.1520 C.2       8 UNK         0.4941 
     53 O          28.9720    1.1763  -12.2474 O.2       8 UNK        -0.5273 
     54 N          29.3365   -0.0467  -10.3689 N.am      9 UNK        -0.4262 
     55 CA         30.7017   -0.4936  -10.6514 C.3       9 UNK         0.0264 
     56 CB         31.0179   -1.6956   -9.7475 C.3       9 UNK        -0.1955 
     57 C          31.7627    0.6144  -10.4936 C.2       9 UNK         0.5031 
     58 O          32.8729    0.4470  -11.0006 O.2       9 UNK        -0.5390 
     59 N          31.4022    1.7143   -9.8142 N.am      10 UNK        -0.4204 
     60 CA         32.2128    2.8992   -9.5119 C.3       10 UNK         0.0237 
     61 CB         32.6243    3.6416  -10.8017 C.3       10 UNK        -0.1985 
     62 C          33.3982    2.5681   -8.5871 C.2       10 UNK         0.4970 
     63 O          34.5371    2.9433   -8.8739 O.2       10 UNK        -0.4914 
     64 N          33.0931    1.8688   -7.4906 N.am      11 UNK        -0.4285 
     65 CA         34.0468    1.4105   -6.4689 C.3       11 UNK         0.1007 
     66 C          33.5583    1.6496   -5.0118 C.2       11 UNK         0.5703 
     67 N          32.4510    2.3485   -4.7885 N.am      11 UNK        -0.7361 
     68 O          34.2124    1.2257   -4.0620 O.2       11 UNK        -0.4986 
     69 C69        34.5293   -0.0423   -6.7372 C.3       12 UNK        -0.0947 
     70 S70        33.1607   -1.2379   -6.8816 S.3       12 UNK        -0.2240 
     71 C71        33.4003   -2.2857   -5.4136 C.3       12 UNK         0.0194 
     72 H72        25.9410   -3.1608    3.6933 H         1 UNK         0.0906 
     73 H73        26.2331   -1.4436    3.9816 H         1 UNK         0.0906 
     74 H74        24.8770   -1.9515    2.9730 H         1 UNK         0.0906 
     75 H75        25.2895   -1.6207    0.7743 H         1 UNK         0.3140 
     76 H76        27.9795   -1.2844   -0.2248 H         1 UNK         0.1085 
     77 H77        26.2416   -3.6196   -1.1806 H         1 UNK         0.0836 
     78 H78        27.7923   -3.7420   -0.4130 H         1 UNK         0.0836 
     79 H79        30.1638   -3.1907   -1.6418 H         1 UNK         0.0731 
     80 H80        29.4975   -4.7881   -1.9289 H         1 UNK         0.0731 
     81 H81        31.9094   -2.4671   -3.1360 H         1 UNK         0.1312 
     82 H82        32.1531   -4.0186   -7.1301 H         1 UNK         0.1406 
     83 H83        29.0902   -5.3990   -4.4670 H         1 UNK         0.1631 
     84 H84        30.7412   -6.0352   -7.6702 H         1 UNK         0.0717 
     85 H85        29.4119   -6.4914   -6.6352 H         1 UNK         0.0717 
     86 H86        26.6576   -5.0654   -7.1637 H         1 UNK         0.0934 
     87 H87        27.7011   -4.4726   -5.9236 H         1 UNK         0.0934 
     88 H88        26.2453   -2.8397   -8.0225 H         1 UNK         0.0739 
     89 H89        25.9074   -1.7791   -5.4700 H         1 UNK         0.3093 
     90 H90        22.6548   -3.1783   -5.0566 H         1 UNK         0.0818 
     91 H91        23.2829   -3.3605   -2.6550 H         1 UNK         0.0819 
     92 H92        23.9829   -4.6852   -3.5746 H         1 UNK         0.0819 
     93 H93        24.9908   -3.3302   -3.0881 H         1 UNK         0.0819 
     94 H94        24.0144   -1.1105   -3.6354 H         1 UNK         0.3041 
     95 H95        23.7536    1.4702   -5.9073 H         1 UNK         0.0784 
     96 H96        21.2806    1.4056   -5.5303 H         1 UNK         0.0793 
     97 H97        21.5406    1.1187   -3.8154 H         1 UNK         0.0793 
     98 H98        22.0440    2.6430   -4.5490 H         1 UNK         0.0793 
     99 H99        23.8676    1.7383   -3.1254 H         1 UNK         0.3024 
    100 H100       27.2090    1.9595   -2.9946 H         1 UNK         0.1171 
    101 H101       24.6953    1.8875   -1.2321 H         1 UNK         0.0786 
    102 H102       26.1957    2.7279   -0.8753 H         1 UNK         0.0786 
    103 H103       25.2177    3.2454   -2.2310 H         1 UNK         0.0786 
    104 H104       27.8897    0.2881   -1.7035 H         1 UNK         0.2977 
    105 H105       28.1132   -1.8912   -5.0954 H         1 UNK         0.3127 
    106 H106       30.3664   -0.9223   -6.1768 H         1 UNK         0.0770 
    107 H107       28.8822    0.3802   -3.8372 H         1 UNK         0.0814 
    108 H108       30.6127    0.4422   -4.1300 H         1 UNK         0.0814 
    109 H109       29.8540   -1.0752   -3.7143 H         1 UNK         0.0814 
    110 H110       27.3738    1.0052   -5.9536 H         1 UNK         0.2983 
    111 H111       28.5702    3.4665   -6.8890 H         1 UNK         0.0947 
    112 H112       26.2039    4.2483   -7.0014 H         1 UNK         0.0806 
    113 H113       26.5279    3.4448   -5.4749 H         1 UNK         0.0806 
    114 H114       25.6333    2.6062   -6.7443 H         1 UNK         0.0806 
    115 H115       27.1707    0.6881   -8.5355 H         1 UNK         0.3000 
    116 H116       26.9129    2.0711  -11.1348 H         1 UNK         0.0850 
    117 H117       26.0911   -0.1413  -11.9133 H         1 UNK         0.0810 
    118 H118       25.1967    0.3840  -10.4960 H         1 UNK         0.0810 
    119 H119       26.4394   -0.8572  -10.3465 H         1 UNK         0.0810 
    120 H120       28.9148   -0.3983   -9.5089 H         1 UNK         0.3040 
    121 H121       30.7420   -0.8290  -11.6898 H         1 UNK         0.0766 
    122 H122       30.8802   -1.4495   -8.6945 H         1 UNK         0.0812 
    123 H123       30.3689   -2.5416   -9.9739 H         1 UNK         0.0812 
    124 H124       32.0477   -2.0313   -9.8765 H         1 UNK         0.0812 
    125 H125       30.4926    1.6946   -9.3721 H         1 UNK         0.3205 
    126 H126       31.5645    3.5690   -8.9447 H         1 UNK         0.0754 
    127 H127       33.1183    4.5852  -10.5667 H         1 UNK         0.0769 
    128 H128       31.7556    3.8751  -11.4176 H         1 UNK         0.0769 
    129 H129       33.3168    3.0558  -11.4069 H         1 UNK         0.0769 
    130 H130       32.1237    1.5969   -7.3381 H         1 UNK         0.2981 
    131 H131       34.9321    2.0452   -6.5335 H         1 UNK         0.0541 
    132 H132       31.9024    2.7063   -5.5540 H         1 UNK         0.3459 
    133 H133       32.1636    2.5176   -3.8382 H         1 UNK         0.3459 
    134 H134       35.2374   -0.3707   -5.9746 H         1 UNK         0.0612 
    135 H135       35.0815   -0.0678   -7.6777 H         1 UNK         0.0612 
    136 H136       33.5996   -1.6455   -4.5528 H         1 UNK         0.0624 
    137 H137       34.2834   -2.9097   -5.5556 H         1 UNK         0.0624 
@<TRIPOS>BOND
     1    1    2 1    
     2    1   72 1    
     3    1   73 1    
     4    1   74 1    
     5    2    3 2    
     6    2    4 am   BACKBONE|DICT|INTERRES
     7    4    5 1    
     8    4   75 1    
     9    5    6 1    
    10    5   35 1    
    11    5   76 1    
    12    6    7 1    
    13    6   77 1    
    14    6   78 1    
    15    7    8 1    
    16    8    9 1    
    17    8   79 1    
    18    8   80 1    
    19    9   10 ar   
    20    9   14 ar   
    21   10   11 ar   
    22   10   81 1    
    23   11   12 ar   
    24   11   71 1    
    25   12   13 ar   
    26   12   82 1    
    27   13   14 ar   
    28   13   15 1    
    29   14   83 1    
    30   15   16 1    
    31   15   84 1    
    32   15   85 1    
    33   16   17 1    
    34   17   18 1    
    35   17   86 1    
    36   17   87 1    
    37   18   19 1    
    38   18   37 1    
    39   18   88 1    
    40   19   20 am   BACKBONE|DICT|INTERRES
    41   19   89 1    
    42   20   21 2    
    43   20   22 1    
    44   22   23 1    
    45   22   24 1    
    46   22   90 1    
    47   23   91 1    
    48   23   92 1    
    49   23   93 1    
    50   24   25 am   BACKBONE|DICT|INTERRES
    51   24   94 1    
    52   25   26 2    
    53   25   27 1    
    54   27   28 1    
    55   27   29 1    
    56   27   95 1    
    57   28   96 1    
    58   28   97 1    
    59   28   98 1    
    60   29   30 am   BACKBONE|DICT|INTERRES
    61   29   99 1    
    62   30   31 2    
    63   30   32 1    
    64   32   33 1    
    65   32   34 1    
    66   32  100 1    
    67   33  101 1    
    68   33  102 1    
    69   33  103 1    
    70   34   35 am   BACKBONE|DICT|INTERRES
    71   34  104 1    
    72   35   36 2    
    73   37   38 2    
    74   37   39 am   BACKBONE|DICT|INTERRES
    75   39   40 1    
    76   39  105 1    
    77   40   41 1    
    78   40   42 1    
    79   40  106 1    
    80   41  107 1    
    81   41  108 1    
    82   41  109 1    
    83   42   43 2    
    84   42   44 am   BACKBONE|DICT|INTERRES
    85   44   45 1    
    86   44  110 1    
    87   45   46 1    
    88   45   47 1    
    89   45  111 1    
    90   46  112 1    
    91   46  113 1    
    92   46  114 1    
    93   47   48 2    
    94   47   49 am   BACKBONE|DICT|INTERRES
    95   49   50 1    
    96   49  115 1    
    97   50   51 1    
    98   50   52 1    
    99   50  116 1    
   100   51  117 1    
   101   51  118 1    
   102   51  119 1    
   103   52   53 2    
   104   52   54 am   BACKBONE|DICT|INTERRES
   105   54   55 1    
   106   54  120 1    
   107   55   56 1    
   108   55   57 1    
   109   55  121 1    
   110   56  122 1    
   111   56  123 1    
   112   56  124 1    
   113   57   58 2    
   114   57   59 am   BACKBONE|DICT|INTERRES
   115   59   60 1    
   116   59  125 1    
   117   60   61 1    
   118   60   62 1    
   119   60  126 1    
   120   61  127 1    
   121   61  128 1    
   122   61  129 1    
   123   62   63 2    
   124   62   64 am   BACKBONE|DICT|INTERRES
   125   64   65 1    
   126   64  130 1    
   127   65   66 1    
   128   65   69 1    
   129   65  131 1    
   130   66   67 am   BACKBONE|DICT|INTERRES
   131   66   68 2    
   132   67  132 1    
   133   67  133 1    
   134   69   70 1    
   135   69  134 1    
   136   69  135 1    
   137   70   71 1    
   138   71  136 1    
   139   71  137 1    
@<TRIPOS>SUBSTRUCTURE
     1 UNK         1 GROUP             0       ****    0 ROOT    
