@<TRIPOS>MOLECULE
3R137
137   139    1
SMALL
USER_CHARGES


@<TRIPOS>ATOM
      1 CA         28.0281   -5.7423    2.4490 C.3       0 UNK        -0.2020 
      2 C          27.7869   -5.2294    1.0369 C.2       0 UNK         0.4855 
      3 O          26.8363   -5.6653    0.3868 O.2       0 UNK        -0.5197 
      4 N          28.6425   -4.3110    0.5666 N.am      1 UNK        -0.4892 
      5 CA         28.5954   -3.6603   -0.7504 C.3       1 UNK         0.0835 
      6 C6         28.8461   -4.6357   -1.9388 C.3       12 UNK        -0.0855 
      7 S7         30.4123   -5.5792   -1.8414 S.3       12 UNK        -0.2931 
      8 C8         31.7217   -4.3016   -1.8614 C.3       12 UNK         0.0378 
      9 C9         31.4429   -3.1606   -2.8313 C.ar      12 UNK        -0.0802 
     10 C10        31.3688   -1.8469   -2.3591 C.ar      12 UNK        -0.0944 
     11 C11        31.0399   -0.7949   -3.2171 C.ar      12 UNK        -0.0787 
     12 C12        30.7736   -1.0743   -4.5628 C.ar      12 UNK        -0.0862 
     13 C13        30.8849   -2.3777   -5.0572 C.ar      12 UNK        -0.0733 
     14 C14        31.2337   -3.4152   -4.1895 C.ar      12 UNK        -0.0832 
     15 C15        30.6286   -2.6646   -6.5290 C.3       12 UNK         0.0240 
     16 S16        29.1435   -3.6888   -6.8076 S.3       12 UNK        -0.2522 
     17 C17        27.8118   -2.7156   -6.0264 C.3       12 UNK        -0.0967 
     18 CA         27.1299   -1.7228   -7.0016 C.3       5 UNK         0.0660 
     19 N          25.7451   -1.4373   -6.6197 N.am      5 UNK        -0.4015 
     20 C          24.8506   -0.8164   -7.4040 C.2       4 UNK         0.4946 
     21 O          25.0802   -0.4693   -8.5615 O.2       4 UNK        -0.5353 
     22 CA         23.4854   -0.4790   -6.7795 C.3       4 UNK         0.0277 
     23 CB         22.5241   -1.6713   -6.9061 C.3       4 UNK        -0.1981 
     24 N          23.5895   -0.0771   -5.3750 N.am      4 UNK        -0.4209 
     25 C          24.2390    1.0148   -4.9441 C.2       3 UNK         0.4942 
     26 O          24.7324    1.8530   -5.6965 O.2       3 UNK        -0.5208 
     27 CA         24.4199    1.1676   -3.4225 C.3       3 UNK         0.0250 
     28 CB         23.2916    2.0263   -2.8303 C.3       3 UNK        -0.1990 
     29 N          24.4895   -0.1142   -2.7095 N.am      3 UNK        -0.4232 
     30 C          25.4321   -1.0473   -2.9050 C.2       2 UNK         0.4993 
     31 O          26.3633   -0.9235   -3.7060 O.2       2 UNK        -0.5286 
     32 CA         25.2269   -2.3775   -2.1667 C.3       2 UNK         0.0209 
     33 CB         24.3227   -3.3031   -2.9990 C.3       2 UNK        -0.1931 
     34 N          26.4931   -3.0660   -1.9180 N.am      2 UNK        -0.4546 
     35 C          27.3127   -2.8055   -0.8908 C.2       1 UNK         0.5154 
     36 O          27.0841   -1.9329   -0.0492 O.2       1 UNK        -0.5181 
     37 C          27.9294   -0.4151   -7.1303 C.2       5 UNK         0.5014 
     38 O          28.6151   -0.2206   -8.1348 O.2       5 UNK        -0.5248 
     39 N          27.7894    0.4758   -6.1365 N.am      6 UNK        -0.4434 
     40 CA         28.3965    1.8106   -6.1229 C.3       6 UNK         0.0363 
     41 CB         28.0699    2.5139   -4.7966 C.3       6 UNK        -0.1936 
     42 C          27.9766    2.6850   -7.3192 C.2       6 UNK         0.5081 
     43 O          28.8039    3.4329   -7.8388 O.2       6 UNK        -0.5248 
     44 N          26.7141    2.5599   -7.7464 N.am      7 UNK        -0.4718 
     45 CA         26.1766    3.2143   -8.9362 C.3       7 UNK         0.0273 
     46 CB         24.6399    3.2124   -8.8725 C.3       7 UNK        -0.1935 
     47 C          26.6745    2.5745  -10.2441 C.2       7 UNK         0.5018 
     48 O          27.1672    3.2954  -11.1129 O.2       7 UNK        -0.5186 
     49 N          26.4982    1.2524  -10.3852 N.am      8 UNK        -0.4240 
     50 CA         26.7138    0.5371  -11.6458 C.3       8 UNK         0.0235 
     51 CB         25.8706   -0.7490  -11.6612 C.3       8 UNK        -0.2000 
     52 C          28.1847    0.2092  -11.9406 C.2       8 UNK         0.4941 
     53 O          28.6246    0.4111  -13.0736 O.2       8 UNK        -0.5273 
     54 N          28.9002   -0.3321  -10.9476 N.am      9 UNK        -0.4262 
     55 CA         30.2547   -0.8728  -11.1034 C.3       9 UNK         0.0264 
     56 CB         30.3019   -2.2798  -10.4844 C.3       9 UNK        -0.1955 
     57 C          31.3307    0.0225  -10.4718 C.2       9 UNK         0.5031 
     58 O          32.4633    0.0101  -10.9569 O.2       9 UNK        -0.5390 
     59 N          30.9564    0.7702   -9.4231 N.am      10 UNK        -0.4204 
     60 CA         31.7858    1.6134   -8.5528 C.3       10 UNK         0.0237 
     61 CB         32.6586    2.6095   -9.3449 C.3       10 UNK        -0.1985 
     62 C          32.6112    0.7917   -7.5482 C.2       10 UNK         0.4970 
     63 O          32.8767   -0.3927   -7.7608 O.2       10 UNK        -0.4914 
     64 N          32.9760    1.4486   -6.4428 N.am      11 UNK        -0.4285 
     65 CA         33.6394    0.8354   -5.2795 C.3       11 UNK         0.1007 
     66 C          35.1758    0.6414   -5.4320 C.2       11 UNK         0.5703 
     67 N          35.8036    1.1064   -6.5059 N.am      11 UNK        -0.7361 
     68 O          35.8111    0.0507   -4.5618 O.2       11 UNK        -0.4986 
     69 C69        33.2871    1.5776   -3.9593 C.3       12 UNK        -0.0947 
     70 S70        31.5042    1.9377   -3.7747 S.3       12 UNK        -0.2240 
     71 C71        30.9381    0.6193   -2.6487 C.3       12 UNK         0.0194 
     72 H72        28.1808   -6.8212    2.4345 H         1 UNK         0.0906 
     73 H73        28.9035   -5.2830    2.9077 H         1 UNK         0.0906 
     74 H74        27.1644   -5.5289    3.0782 H         1 UNK         0.0906 
     75 H75        29.3819   -3.9841    1.1728 H         1 UNK         0.3140 
     76 H76        29.4057   -2.9329   -0.7454 H         1 UNK         0.1085 
     77 H77        28.0400   -5.3681   -2.0065 H         1 UNK         0.0836 
     78 H78        28.8374   -4.0961   -2.8874 H         1 UNK         0.0836 
     79 H79        31.8452   -3.9225   -0.8458 H         1 UNK         0.0731 
     80 H80        32.6696   -4.7715   -2.1270 H         1 UNK         0.0731 
     81 H81        31.5475   -1.6433   -1.3120 H         1 UNK         0.1312 
     82 H82        30.4980   -0.2734   -5.2328 H         1 UNK         0.1406 
     83 H83        31.2999   -4.4283   -4.5632 H         1 UNK         0.1631 
     84 H84        30.5421   -1.7365   -7.0931 H         1 UNK         0.0717 
     85 H85        31.4939   -3.1827   -6.9445 H         1 UNK         0.0717 
     86 H86        27.0787   -3.4451   -5.6789 H         1 UNK         0.0934 
     87 H87        28.1717   -2.2252   -5.1207 H         1 UNK         0.0934 
     88 H88        27.0920   -2.1834   -7.9917 H         1 UNK         0.0739 
     89 H89        25.5090   -1.6067   -5.6520 H         1 UNK         0.3093 
     90 H90        23.0661    0.3609   -7.3377 H         1 UNK         0.0818 
     91 H91        21.5277   -1.4180   -6.5437 H         1 UNK         0.0819 
     92 H92        22.4190   -1.9766   -7.9484 H         1 UNK         0.0819 
     93 H93        22.8753   -2.5393   -6.3466 H         1 UNK         0.0819 
     94 H94        23.1868   -0.6971   -4.6883 H         1 UNK         0.3041 
     95 H95        25.3664    1.6860   -3.2574 H         1 UNK         0.0784 
     96 H96        23.2367    2.9949   -3.3297 H         1 UNK         0.0793 
     97 H97        22.3174    1.5479   -2.9394 H         1 UNK         0.0793 
     98 H98        23.4548    2.2205   -1.7700 H         1 UNK         0.0793 
     99 H99        23.7503   -0.2986   -2.0457 H         1 UNK         0.3024 
    100 H100       24.7403   -2.1783   -1.2086 H         1 UNK         0.1171 
    101 H101       24.1470   -4.2487   -2.4852 H         1 UNK         0.0786 
    102 H102       23.3461   -2.8500   -3.1743 H         1 UNK         0.0786 
    103 H103       24.7583   -3.5294   -3.9733 H         1 UNK         0.0786 
    104 H104       26.7551   -3.7795   -2.5807 H         1 UNK         0.2977 
    105 H105       27.2201    0.2198   -5.3369 H         1 UNK         0.3127 
    106 H106       29.4775    1.6743   -6.1777 H         1 UNK         0.0770 
    107 H107       27.0147    2.7751   -4.7239 H         1 UNK         0.0814 
    108 H108       28.6385    3.4399   -4.7022 H         1 UNK         0.0814 
    109 H109       28.3210    1.8901   -3.9394 H         1 UNK         0.0814 
    110 H110       26.0724    1.9936   -7.2003 H         1 UNK         0.2983 
    111 H111       26.5087    4.2550   -8.9310 H         1 UNK         0.0947 
    112 H112       24.2118    3.7094   -9.7440 H         1 UNK         0.0806 
    113 H113       24.2812    3.7404   -7.9886 H         1 UNK         0.0806 
    114 H114       24.2347    2.2006   -8.8407 H         1 UNK         0.0806 
    115 H115       26.0702    0.7221   -9.6284 H         1 UNK         0.3000 
    116 H116       26.3528    1.1701  -12.4598 H         1 UNK         0.0850 
    117 H117       25.9750   -1.2740  -12.6116 H         1 UNK         0.0810 
    118 H118       24.8112   -0.5299  -11.5260 H         1 UNK         0.0810 
    119 H119       26.1709   -1.4398  -10.8723 H         1 UNK         0.0810 
    120 H120       28.4907   -0.4001  -10.0194 H         1 UNK         0.3040 
    121 H121       30.5017   -0.9721  -12.1626 H         1 UNK         0.0766 
    122 H122       29.6145   -2.9578  -10.9903 H         1 UNK         0.0812 
    123 H123       30.0366   -2.2638   -9.4278 H         1 UNK         0.0812 
    124 H124       31.3010   -2.7105  -10.5638 H         1 UNK         0.0812 
    125 H125       30.0163    0.6047   -9.0707 H         1 UNK         0.3205 
    126 H126       31.0765    2.1987   -7.9695 H         1 UNK         0.0754 
    127 H127       33.0992    3.3551   -8.6823 H         1 UNK         0.0769 
    128 H128       32.0698    3.1476  -10.0879 H         1 UNK         0.0769 
    129 H129       33.4820    2.1149   -9.8607 H         1 UNK         0.0769 
    130 H130       32.7347    2.4233   -6.3414 H         1 UNK         0.2981 
    131 H131       33.2494   -0.1781   -5.1830 H         1 UNK         0.0541 
    132 H132       35.2907    1.5818   -7.2303 H         1 UNK         0.3459 
    133 H133       36.7982    0.9706   -6.5944 H         1 UNK         0.3459 
    134 H134       33.8159    2.5312   -3.9128 H         1 UNK         0.0612 
    135 H135       33.6246    1.0019   -3.0955 H         1 UNK         0.0612 
    136 H136       29.8960    0.8086   -2.3896 H         1 UNK         0.0624 
    137 H137       31.5051    0.6998   -1.7200 H         1 UNK         0.0624 
@<TRIPOS>BOND
     1    1    2 1    
     2    1   72 1    
     3    1   73 1    
     4    1   74 1    
     5    2    3 2    
     6    2    4 am   BACKBONE|DICT|INTERRES
     7    4    5 1    
     8    4   75 1    
     9    5    6 1    
    10    5   35 1    
    11    5   76 1    
    12    6    7 1    
    13    6   77 1    
    14    6   78 1    
    15    7    8 1    
    16    8    9 1    
    17    8   79 1    
    18    8   80 1    
    19    9   10 ar   
    20    9   14 ar   
    21   10   11 ar   
    22   10   81 1    
    23   11   12 ar   
    24   11   71 1    
    25   12   13 ar   
    26   12   82 1    
    27   13   14 ar   
    28   13   15 1    
    29   14   83 1    
    30   15   16 1    
    31   15   84 1    
    32   15   85 1    
    33   16   17 1    
    34   17   18 1    
    35   17   86 1    
    36   17   87 1    
    37   18   19 1    
    38   18   37 1    
    39   18   88 1    
    40   19   20 am   BACKBONE|DICT|INTERRES
    41   19   89 1    
    42   20   21 2    
    43   20   22 1    
    44   22   23 1    
    45   22   24 1    
    46   22   90 1    
    47   23   91 1    
    48   23   92 1    
    49   23   93 1    
    50   24   25 am   BACKBONE|DICT|INTERRES
    51   24   94 1    
    52   25   26 2    
    53   25   27 1    
    54   27   28 1    
    55   27   29 1    
    56   27   95 1    
    57   28   96 1    
    58   28   97 1    
    59   28   98 1    
    60   29   30 am   BACKBONE|DICT|INTERRES
    61   29   99 1    
    62   30   31 2    
    63   30   32 1    
    64   32   33 1    
    65   32   34 1    
    66   32  100 1    
    67   33  101 1    
    68   33  102 1    
    69   33  103 1    
    70   34   35 am   BACKBONE|DICT|INTERRES
    71   34  104 1    
    72   35   36 2    
    73   37   38 2    
    74   37   39 am   BACKBONE|DICT|INTERRES
    75   39   40 1    
    76   39  105 1    
    77   40   41 1    
    78   40   42 1    
    79   40  106 1    
    80   41  107 1    
    81   41  108 1    
    82   41  109 1    
    83   42   43 2    
    84   42   44 am   BACKBONE|DICT|INTERRES
    85   44   45 1    
    86   44  110 1    
    87   45   46 1    
    88   45   47 1    
    89   45  111 1    
    90   46  112 1    
    91   46  113 1    
    92   46  114 1    
    93   47   48 2    
    94   47   49 am   BACKBONE|DICT|INTERRES
    95   49   50 1    
    96   49  115 1    
    97   50   51 1    
    98   50   52 1    
    99   50  116 1    
   100   51  117 1    
   101   51  118 1    
   102   51  119 1    
   103   52   53 2    
   104   52   54 am   BACKBONE|DICT|INTERRES
   105   54   55 1    
   106   54  120 1    
   107   55   56 1    
   108   55   57 1    
   109   55  121 1    
   110   56  122 1    
   111   56  123 1    
   112   56  124 1    
   113   57   58 2    
   114   57   59 am   BACKBONE|DICT|INTERRES
   115   59   60 1    
   116   59  125 1    
   117   60   61 1    
   118   60   62 1    
   119   60  126 1    
   120   61  127 1    
   121   61  128 1    
   122   61  129 1    
   123   62   63 2    
   124   62   64 am   BACKBONE|DICT|INTERRES
   125   64   65 1    
   126   64  130 1    
   127   65   66 1    
   128   65   69 1    
   129   65  131 1    
   130   66   67 am   BACKBONE|DICT|INTERRES
   131   66   68 2    
   132   67  132 1    
   133   67  133 1    
   134   69   70 1    
   135   69  134 1    
   136   69  135 1    
   137   70   71 1    
   138   71  136 1    
   139   71  137 1    
@<TRIPOS>SUBSTRUCTURE
     1 UNK         1 GROUP             0       ****    0 ROOT    
