@<TRIPOS>MOLECULE
3R137
137   139    1
SMALL
USER_CHARGES


@<TRIPOS>ATOM
      1 CA         22.3849   -4.4542   -0.5824 C.3       0 UNK        -0.2020 
      2 C          23.7275   -4.1369   -1.2222 C.2       0 UNK         0.4855 
      3 O          23.7662   -3.7361   -2.3856 O.2       0 UNK        -0.5197 
      4 N          24.8243   -4.2965   -0.4651 N.am      1 UNK        -0.4892 
      5 CA         26.2141   -4.0683   -0.8891 C.3       1 UNK         0.0835 
      6 C6         26.6997   -5.1611   -1.8827 C.3       12 UNK        -0.0855 
      7 S7         28.5198   -5.3227   -1.9535 S.3       12 UNK        -0.2931 
      8 C8         28.8633   -4.9682   -3.7127 C.3       12 UNK         0.0378 
      9 C9         30.0788   -4.0721   -3.9034 C.ar      12 UNK        -0.0802 
     10 C10        31.1119   -4.4395   -4.7718 C.ar      12 UNK        -0.0944 
     11 C11        32.1994   -3.5841   -4.9819 C.ar      12 UNK        -0.0787 
     12 C12        32.2475   -2.3538   -4.3170 C.ar      12 UNK        -0.0862 
     13 C13        31.2165   -1.9737   -3.4533 C.ar      12 UNK        -0.0733 
     14 C14        30.1436   -2.8419   -3.2459 C.ar      12 UNK        -0.0832 
     15 C15        31.2644   -0.6336   -2.7349 C.3       12 UNK         0.0240 
     16 S16        30.5168    0.7004   -3.7253 S.3       12 UNK        -0.2522 
     17 C17        28.7302    0.3353   -3.6098 C.3       12 UNK        -0.0967 
     18 CA         28.0760    0.0962   -4.9970 C.3       5 UNK         0.0660 
     19 N          26.9288   -0.8271   -4.9233 N.am      5 UNK        -0.4015 
     20 C          26.1772   -1.2235   -5.9643 C.2       4 UNK         0.4946 
     21 O          26.3824   -0.8737   -7.1241 O.2       4 UNK        -0.5353 
     22 CA         24.9516   -2.1065   -5.6775 C.3       4 UNK         0.0277 
     23 CB         25.3426   -3.5836   -5.5600 C.3       4 UNK        -0.1981 
     24 N          24.2293   -1.6796   -4.4800 N.am      4 UNK        -0.4209 
     25 C          23.5231   -0.5423   -4.4049 C.2       3 UNK         0.4942 
     26 O          23.3147    0.1995   -5.3648 O.2       3 UNK        -0.5208 
     27 CA         23.0081   -0.1345   -3.0156 C.3       3 UNK         0.0250 
     28 CB         21.6882   -0.8480   -2.6817 C.3       3 UNK        -0.1990 
     29 N          23.9974   -0.3850   -1.9640 N.am      3 UNK        -0.4232 
     30 C          25.1746    0.2511   -1.8688 C.2       2 UNK         0.4993 
     31 O          25.5327    1.1475   -2.6336 O.2       2 UNK        -0.5286 
     32 CA         26.1295   -0.2137   -0.7556 C.3       2 UNK         0.0209 
     33 CB         25.8528    0.5562    0.5453 C.3       2 UNK        -0.1931 
     34 N          26.0708   -1.6563   -0.4934 N.am      2 UNK        -0.4546 
     35 C          26.4128   -2.6114   -1.3718 C.2       1 UNK         0.5154 
     36 O          26.7978   -2.3668   -2.5165 O.2       1 UNK        -0.5181 
     37 C          27.7289    1.4472   -5.6627 C.2       5 UNK         0.5014 
     38 O          28.5468    1.9909   -6.4045 O.2       5 UNK        -0.5248 
     39 N          26.5150    1.9563   -5.4043 N.am      6 UNK        -0.4434 
     40 CA         25.9786    3.1753   -6.0149 C.3       6 UNK         0.0363 
     41 CB         24.6630    3.5555   -5.3176 C.3       6 UNK        -0.1936 
     42 C          25.7766    3.0750   -7.5407 C.2       6 UNK         0.5081 
     43 O          25.8288    4.1044   -8.2148 O.2       6 UNK        -0.5248 
     44 N          25.5558    1.8592   -8.0598 N.am      7 UNK        -0.4718 
     45 CA         25.4558    1.5759   -9.4927 C.3       7 UNK         0.0273 
     46 CB         24.4013    0.4812   -9.7258 C.3       7 UNK        -0.1935 
     47 C          26.8163    1.1544  -10.0690 C.2       7 UNK         0.5018 
     48 O          27.2053    1.6422  -11.1316 O.2       7 UNK        -0.5186 
     49 N          27.5212    0.2633   -9.3596 N.am      8 UNK        -0.4240 
     50 CA         28.8370   -0.2719   -9.7077 C.3       8 UNK         0.0235 
     51 CB         29.0341   -1.6157   -8.9797 C.3       8 UNK        -0.2000 
     52 C          29.9564    0.7377   -9.3961 C.2       8 UNK         0.4941 
     53 O          30.7698    0.5114   -8.4979 O.2       8 UNK        -0.5273 
     54 N          29.9764    1.8452  -10.1476 N.am      9 UNK        -0.4262 
     55 CA         30.9990    2.8882  -10.0724 C.3       9 UNK         0.0264 
     56 CB         30.6150    4.0454  -11.0085 C.3       9 UNK        -0.1955 
     57 C          32.3931    2.3395  -10.4245 C.2       9 UNK         0.5031 
     58 O          32.5327    1.6346  -11.4273 O.2       9 UNK        -0.5390 
     59 N          33.3854    2.6815   -9.5914 N.am      10 UNK        -0.4204 
     60 CA         34.7963    2.2801   -9.6785 C.3       10 UNK         0.0237 
     61 CB         35.4582    2.8510  -10.9525 C.3       10 UNK        -0.1985 
     62 C          35.0462    0.7654   -9.5017 C.2       10 UNK         0.4970 
     63 O          36.0724    0.2675   -9.9690 O.2       10 UNK        -0.4914 
     64 N          34.1381    0.0615   -8.8096 N.am      11 UNK        -0.4285 
     65 CA         34.3159   -1.3329   -8.3754 C.3       11 UNK         0.1007 
     66 C          35.4891   -1.4715   -7.3644 C.2       11 UNK         0.5703 
     67 N          36.3625   -2.4527   -7.5468 N.am      11 UNK        -0.7361 
     68 O          35.5907   -0.7150   -6.4002 O.2       11 UNK        -0.4986 
     69 C69        32.9905   -1.8946   -7.7992 C.3       12 UNK        -0.0947 
     70 S70        32.9446   -3.7150   -7.6681 S.3       12 UNK        -0.2240 
     71 C71        33.3330   -3.9998   -5.9095 C.3       12 UNK         0.0194 
     72 H72        21.8669   -5.2177   -1.1620 H         1 UNK         0.0906 
     73 H73        22.4940   -4.8197    0.4385 H         1 UNK         0.0906 
     74 H74        21.7597   -3.5622   -0.5592 H         1 UNK         0.0906 
     75 H75        24.7142   -4.6160    0.4883 H         1 UNK         0.3140 
     76 H76        26.8173   -4.1648    0.0155 H         1 UNK         0.1085 
     77 H77        26.2695   -5.0125   -2.8717 H         1 UNK         0.0836 
     78 H78        26.3238   -6.1326   -1.5579 H         1 UNK         0.0836 
     79 H79        28.9841   -5.9134   -4.2440 H         1 UNK         0.0731 
     80 H80        28.0180   -4.4618   -4.1733 H         1 UNK         0.0731 
     81 H81        31.0693   -5.3865   -5.2925 H         1 UNK         0.1312 
     82 H82        33.0859   -1.6885   -4.4744 H         1 UNK         0.1406 
     83 H83        29.3484   -2.5659   -2.5699 H         1 UNK         0.1631 
     84 H84        32.3014   -0.3697   -2.5218 H         1 UNK         0.0717 
     85 H85        30.7648   -0.6972   -1.7668 H         1 UNK         0.0717 
     86 H86        28.5964   -0.5350   -2.9736 H         1 UNK         0.0934 
     87 H87        28.2428    1.1505   -3.0713 H         1 UNK         0.0934 
     88 H88        28.8047   -0.4006   -5.6414 H         1 UNK         0.0739 
     89 H89        26.7286   -1.2296   -4.0105 H         1 UNK         0.3093 
     90 H90        24.2750   -2.0109   -6.5299 H         1 UNK         0.0818 
     91 H91        25.9721   -3.7501   -4.6910 H         1 UNK         0.0819 
     92 H92        24.4632   -4.2202   -5.4614 H         1 UNK         0.0819 
     93 H93        25.8946   -3.9174   -6.4396 H         1 UNK         0.0819 
     94 H94        24.3058   -2.2708   -3.6565 H         1 UNK         0.3041 
     95 H95        22.8149    0.9403   -3.0387 H         1 UNK         0.0784 
     96 H96        20.9266   -0.6207   -3.4289 H         1 UNK         0.0793 
     97 H97        21.8040   -1.9315   -2.6586 H         1 UNK         0.0793 
     98 H98        21.2972   -0.5300   -1.7151 H         1 UNK         0.0793 
     99 H99        23.7989   -1.1303   -1.3133 H         1 UNK         0.3024 
    100 H100       27.1448    0.0238   -1.0779 H         1 UNK         0.1171 
    101 H101       26.5829    0.3087    1.3163 H         1 UNK         0.0786 
    102 H102       24.8593    0.3410    0.9409 H         1 UNK         0.0786 
    103 H103       25.9117    1.6332    0.3808 H         1 UNK         0.0786 
    104 H104       25.7360   -1.9394    0.4167 H         1 UNK         0.2977 
    105 H105       25.9292    1.4868   -4.7216 H         1 UNK         0.3127 
    106 H106       26.7003    3.9750   -5.8357 H         1 UNK         0.0770 
    107 H107       23.8921    2.8005   -5.4726 H         1 UNK         0.0814 
    108 H108       24.2761    4.4992   -5.7043 H         1 UNK         0.0814 
    109 H109       24.8022    3.6770   -4.2431 H         1 UNK         0.0814 
    110 H110       25.5738    1.0564   -7.4411 H         1 UNK         0.2983 
    111 H111       25.1307    2.4716  -10.0270 H         1 UNK         0.0947 
    112 H112       24.3011    0.2570  -10.7886 H         1 UNK         0.0806 
    113 H113       23.4210    0.7953   -9.3669 H         1 UNK         0.0806 
    114 H114       24.6588   -0.4494   -9.2187 H         1 UNK         0.0806 
    115 H115       27.1154   -0.0919   -8.4933 H         1 UNK         0.3000 
    116 H116       28.8604   -0.4694  -10.7815 H         1 UNK         0.0850 
    117 H117       29.9723   -2.0859   -9.2748 H         1 UNK         0.0810 
    118 H118       28.2331   -2.3165   -9.2154 H         1 UNK         0.0810 
    119 H119       29.0572   -1.4896   -7.8965 H         1 UNK         0.0810 
    120 H120       29.2407    1.9608  -10.8357 H         1 UNK         0.3040 
    121 H121       31.0084    3.2621   -9.0463 H         1 UNK         0.0766 
    122 H122       30.5637    3.7214  -12.0489 H         1 UNK         0.0812 
    123 H123       29.6467    4.4689  -10.7404 H         1 UNK         0.0812 
    124 H124       31.3478    4.8516  -10.9539 H         1 UNK         0.0812 
    125 H125       33.1520    3.2575   -8.7935 H         1 UNK         0.3205 
    126 H126       35.2872    2.7515   -8.8258 H         1 UNK         0.0754 
    127 H127       36.5385    2.7017  -10.9348 H         1 UNK         0.0769 
    128 H128       35.2844    3.9232  -11.0440 H         1 UNK         0.0769 
    129 H129       35.0804    2.3713  -11.8559 H         1 UNK         0.0769 
    130 H130       33.3093    0.5291   -8.4698 H         1 UNK         0.2981 
    131 H131       34.5619   -1.9079   -9.2704 H         1 UNK         0.0541 
    132 H132       37.1234   -2.5601   -6.8949 H         1 UNK         0.3459 
    133 H133       36.2779   -3.0848   -8.3274 H         1 UNK         0.3459 
    134 H134       32.1760   -1.6368   -8.4742 H         1 UNK         0.0612 
    135 H135       32.7409   -1.4259   -6.8477 H         1 UNK         0.0612 
    136 H136       34.2541   -3.4798   -5.6450 H         1 UNK         0.0624 
    137 H137       33.5396   -5.0619   -5.7701 H         1 UNK         0.0624 
@<TRIPOS>BOND
     1    1    2 1    
     2    1   72 1    
     3    1   73 1    
     4    1   74 1    
     5    2    3 2    
     6    2    4 am   BACKBONE|DICT|INTERRES
     7    4    5 1    
     8    4   75 1    
     9    5    6 1    
    10    5   35 1    
    11    5   76 1    
    12    6    7 1    
    13    6   77 1    
    14    6   78 1    
    15    7    8 1    
    16    8    9 1    
    17    8   79 1    
    18    8   80 1    
    19    9   10 ar   
    20    9   14 ar   
    21   10   11 ar   
    22   10   81 1    
    23   11   12 ar   
    24   11   71 1    
    25   12   13 ar   
    26   12   82 1    
    27   13   14 ar   
    28   13   15 1    
    29   14   83 1    
    30   15   16 1    
    31   15   84 1    
    32   15   85 1    
    33   16   17 1    
    34   17   18 1    
    35   17   86 1    
    36   17   87 1    
    37   18   19 1    
    38   18   37 1    
    39   18   88 1    
    40   19   20 am   BACKBONE|DICT|INTERRES
    41   19   89 1    
    42   20   21 2    
    43   20   22 1    
    44   22   23 1    
    45   22   24 1    
    46   22   90 1    
    47   23   91 1    
    48   23   92 1    
    49   23   93 1    
    50   24   25 am   BACKBONE|DICT|INTERRES
    51   24   94 1    
    52   25   26 2    
    53   25   27 1    
    54   27   28 1    
    55   27   29 1    
    56   27   95 1    
    57   28   96 1    
    58   28   97 1    
    59   28   98 1    
    60   29   30 am   BACKBONE|DICT|INTERRES
    61   29   99 1    
    62   30   31 2    
    63   30   32 1    
    64   32   33 1    
    65   32   34 1    
    66   32  100 1    
    67   33  101 1    
    68   33  102 1    
    69   33  103 1    
    70   34   35 am   BACKBONE|DICT|INTERRES
    71   34  104 1    
    72   35   36 2    
    73   37   38 2    
    74   37   39 am   BACKBONE|DICT|INTERRES
    75   39   40 1    
    76   39  105 1    
    77   40   41 1    
    78   40   42 1    
    79   40  106 1    
    80   41  107 1    
    81   41  108 1    
    82   41  109 1    
    83   42   43 2    
    84   42   44 am   BACKBONE|DICT|INTERRES
    85   44   45 1    
    86   44  110 1    
    87   45   46 1    
    88   45   47 1    
    89   45  111 1    
    90   46  112 1    
    91   46  113 1    
    92   46  114 1    
    93   47   48 2    
    94   47   49 am   BACKBONE|DICT|INTERRES
    95   49   50 1    
    96   49  115 1    
    97   50   51 1    
    98   50   52 1    
    99   50  116 1    
   100   51  117 1    
   101   51  118 1    
   102   51  119 1    
   103   52   53 2    
   104   52   54 am   BACKBONE|DICT|INTERRES
   105   54   55 1    
   106   54  120 1    
   107   55   56 1    
   108   55   57 1    
   109   55  121 1    
   110   56  122 1    
   111   56  123 1    
   112   56  124 1    
   113   57   58 2    
   114   57   59 am   BACKBONE|DICT|INTERRES
   115   59   60 1    
   116   59  125 1    
   117   60   61 1    
   118   60   62 1    
   119   60  126 1    
   120   61  127 1    
   121   61  128 1    
   122   61  129 1    
   123   62   63 2    
   124   62   64 am   BACKBONE|DICT|INTERRES
   125   64   65 1    
   126   64  130 1    
   127   65   66 1    
   128   65   69 1    
   129   65  131 1    
   130   66   67 am   BACKBONE|DICT|INTERRES
   131   66   68 2    
   132   67  132 1    
   133   67  133 1    
   134   69   70 1    
   135   69  134 1    
   136   69  135 1    
   137   70   71 1    
   138   71  136 1    
   139   71  137 1    
@<TRIPOS>SUBSTRUCTURE
     1 UNK         1 GROUP             0       ****    0 ROOT    
