@<TRIPOS>MOLECULE
3R137
137   139    1
SMALL
USER_CHARGES


@<TRIPOS>ATOM
      1 CA         24.6675   -6.0143   -5.4903 C.3       0 UNK        -0.2020 
      2 C          24.8636   -5.4359   -4.0976 C.2       0 UNK         0.4855 
      3 O          23.9085   -4.9389   -3.4998 O.2       0 UNK        -0.5197 
      4 N          26.0992   -5.4837   -3.5842 N.am      1 UNK        -0.4892 
      5 CA         26.5297   -4.9397   -2.2908 C.3       1 UNK         0.0835 
      6 C6         28.0119   -5.2853   -1.9726 C.3       12 UNK        -0.0855 
      7 S7         29.1585   -5.1685   -3.3974 S.3       12 UNK        -0.2931 
      8 C8         30.6813   -4.5415   -2.6265 C.3       12 UNK         0.0378 
      9 C9         30.8299   -3.0338   -2.7773 C.ar      12 UNK        -0.0802 
     10 C10        31.4769   -2.5065   -3.8997 C.ar      12 UNK        -0.0944 
     11 C11        31.7116   -1.1324   -4.0048 C.ar      12 UNK        -0.0787 
     12 C12        31.2820   -0.2821   -2.9829 C.ar      12 UNK        -0.0862 
     13 C13        30.5999   -0.7904   -1.8725 C.ar      12 UNK        -0.0733 
     14 C14        30.3778   -2.1691   -1.7754 C.ar      12 UNK        -0.0832 
     15 C15        30.1292    0.1421   -0.7603 C.3       12 UNK         0.0240 
     16 S16        29.1242    1.5400   -1.3675 S.3       12 UNK        -0.2522 
     17 C17        27.7739    0.6739   -2.2313 C.3       12 UNK        -0.0967 
     18 CA         27.8779    0.8212   -3.7730 C.3       5 UNK         0.0660 
     19 N          27.3868   -0.3712   -4.4666 N.am      5 UNK        -0.4015 
     20 C          27.4337   -0.5774   -5.7899 C.2       4 UNK         0.4946 
     21 O          27.9820    0.1835   -6.5836 O.2       4 UNK        -0.5353 
     22 CA         26.6897   -1.8099   -6.3269 C.3       4 UNK         0.0277 
     23 CB         27.5744   -3.0636   -6.2562 C.3       4 UNK        -0.1981 
     24 N          25.4312   -2.0346   -5.6103 N.am      4 UNK        -0.4209 
     25 C          24.3555   -1.2397   -5.7194 C.2       3 UNK         0.4942 
     26 O          24.2877   -0.2850   -6.4916 O.2       3 UNK        -0.5208 
     27 CA         23.1773   -1.5192   -4.7728 C.3       3 UNK         0.0250 
     28 CB         22.2364   -2.5807   -5.3630 C.3       3 UNK        -0.1990 
     29 N          23.6224   -1.9222   -3.4363 N.am      3 UNK        -0.4232 
     30 C          24.2205   -1.0865   -2.5727 C.2       2 UNK         0.4993 
     31 O          24.4134    0.1069   -2.8047 O.2       2 UNK        -0.5286 
     32 CA         24.7421   -1.6823   -1.2525 C.3       2 UNK         0.0209 
     33 CB         23.6512   -1.6312   -0.1716 C.3       2 UNK        -0.1931 
     34 N          25.2401   -3.0555   -1.3829 N.am      2 UNK        -0.4546 
     35 C          26.2400   -3.4289   -2.1939 C.2       1 UNK         0.5154 
     36 O          26.8720   -2.6379   -2.8933 O.2       1 UNK        -0.5181 
     37 C          27.1848    2.1073   -4.2714 C.2       5 UNK         0.5014 
     38 O          27.8666    3.0889   -4.5703 O.2       5 UNK        -0.5248 
     39 N          25.8477    2.0662   -4.3761 N.am      6 UNK        -0.4434 
     40 CA         25.0172    3.1526   -4.8983 C.3       6 UNK         0.0363 
     41 CB         23.5366    2.8475   -4.6197 C.3       6 UNK        -0.1936 
     42 C          25.2441    3.4240   -6.3958 C.2       6 UNK         0.5081 
     43 O          25.3349    4.5882   -6.7873 O.2       6 UNK        -0.5248 
     44 N          25.3246    2.3587   -7.2061 N.am      7 UNK        -0.4718 
     45 CA         25.5548    2.4382   -8.6526 C.3       7 UNK         0.0273 
     46 CB         25.2364    1.0793   -9.2961 C.3       7 UNK        -0.1935 
     47 C          26.9799    2.8805   -9.0280 C.2       7 UNK         0.5018 
     48 O          27.1479    3.5373  -10.0570 O.2       7 UNK        -0.5186 
     49 N          27.9644    2.5056   -8.1985 N.am      8 UNK        -0.4240 
     50 CA         29.4080    2.6596   -8.3948 C.3       8 UNK         0.0235 
     51 CB         29.8132    4.1487   -8.4856 C.3       8 UNK        -0.2000 
     52 C          29.9103    1.7908   -9.5654 C.2       8 UNK         0.4941 
     53 O          29.3133    0.7504   -9.8532 O.2       8 UNK        -0.5273 
     54 N          31.0311    2.1896  -10.1848 N.am      9 UNK        -0.4262 
     55 CA         31.7344    1.5605  -11.3171 C.3       9 UNK         0.0264 
     56 CB         30.8427    1.5054  -12.5730 C.3       9 UNK        -0.1955 
     57 C          32.3589    0.1808  -11.0273 C.2       9 UNK         0.5031 
     58 O          33.4599   -0.0843  -11.5108 O.2       9 UNK        -0.5390 
     59 N          31.6842   -0.6584  -10.2306 N.am      10 UNK        -0.4204 
     60 CA         32.1028   -2.0068   -9.8254 C.3       10 UNK         0.0237 
     61 CB         30.9990   -2.6333   -8.9560 C.3       10 UNK        -0.1985 
     62 C          33.4580   -2.0621   -9.0943 C.2       10 UNK         0.4970 
     63 O          34.1666   -3.0622   -9.2135 O.2       10 UNK        -0.4914 
     64 N          33.7935   -0.9861   -8.3735 N.am      11 UNK        -0.4285 
     65 CA         35.0926   -0.7726   -7.7199 C.3       11 UNK         0.1007 
     66 C          36.1909   -0.2010   -8.6671 C.2       11 UNK         0.5703 
     67 N          35.9178    0.0839   -9.9355 N.am      11 UNK        -0.7361 
     68 O          37.3317   -0.0268   -8.2445 O.2       11 UNK        -0.4986 
     69 C69        34.9265    0.0863   -6.4367 C.3       12 UNK        -0.0947 
     70 S70        34.2393   -0.8744   -5.0488 S.3       12 UNK        -0.2240 
     71 C71        32.4541   -0.5703   -5.2069 C.3       12 UNK         0.0194 
     72 H72        24.4469   -5.2191   -6.2016 H         1 UNK         0.0906 
     73 H73        25.5535   -6.5450   -5.8387 H         1 UNK         0.0906 
     74 H74        23.8327   -6.7148   -5.4913 H         1 UNK         0.0906 
     75 H75        26.8539   -5.8681   -4.1365 H         1 UNK         0.3140 
     76 H76        25.9208   -5.4336   -1.5303 H         1 UNK         0.1085 
     77 H77        28.3802   -4.6766   -1.1446 H         1 UNK         0.0836 
     78 H78        28.0638   -6.3147   -1.6145 H         1 UNK         0.0836 
     79 H79        31.5316   -5.0365   -3.0982 H         1 UNK         0.0731 
     80 H80        30.7214   -4.8290   -1.5748 H         1 UNK         0.0731 
     81 H81        31.8281   -3.1695   -4.6788 H         1 UNK         0.1312 
     82 H82        31.4721    0.7803   -3.0526 H         1 UNK         0.1406 
     83 H83        29.8714   -2.5741   -0.9102 H         1 UNK         0.1631 
     84 H84        31.0024    0.5374   -0.2398 H         1 UNK         0.0717 
     85 H85        29.5485   -0.4045   -0.0155 H         1 UNK         0.0717 
     86 H86        27.8135   -0.3773   -1.9451 H         1 UNK         0.0934 
     87 H87        26.8181    1.0374   -1.8490 H         1 UNK         0.0934 
     88 H88        28.9311    0.8995   -4.0491 H         1 UNK         0.0739 
     89 H89        27.0123   -1.1154   -3.8816 H         1 UNK         0.3093 
     90 H90        26.4531   -1.6242   -7.3767 H         1 UNK         0.0818 
     91 H91        27.8741   -3.2888   -5.2337 H         1 UNK         0.0819 
     92 H92        27.0630   -3.9377   -6.6588 H         1 UNK         0.0819 
     93 H93        28.4882   -2.9255   -6.8357 H         1 UNK         0.0819 
     94 H94        25.4330   -2.7526   -4.9007 H         1 UNK         0.3041 
     95 H95        22.6103   -0.5910   -4.6716 H         1 UNK         0.0784 
     96 H96        21.8542   -2.2628   -6.3340 H         1 UNK         0.0793 
     97 H97        22.7385   -3.5363   -5.5097 H         1 UNK         0.0793 
     98 H98        21.3755   -2.7508   -4.7163 H         1 UNK         0.0793 
     99 H99        23.5414   -2.9063   -3.1990 H         1 UNK         0.3024 
    100 H100       25.5764   -1.0594   -0.9239 H         1 UNK         0.1171 
    101 H101       24.0339   -1.9590    0.7952 H         1 UNK         0.0786 
    102 H102       23.2785   -0.6140   -0.0419 H         1 UNK         0.0786 
    103 H103       22.7980   -2.2609   -0.4275 H         1 UNK         0.0786 
    104 H104       24.7366   -3.7672   -0.8724 H         1 UNK         0.2977 
    105 H105       25.3569    1.2431   -4.0343 H         1 UNK         0.3127 
    106 H106       25.2827    4.0616   -4.3544 H         1 UNK         0.0770 
    107 H107       23.2128    1.9315   -5.1150 H         1 UNK         0.0814 
    108 H108       22.8973    3.6560   -4.9766 H         1 UNK         0.0814 
    109 H109       23.3497    2.7328   -3.5518 H         1 UNK         0.0814 
    110 H110       25.1714    1.4311   -6.8189 H         1 UNK         0.2983 
    111 H111       24.8642    3.1783   -9.0630 H         1 UNK         0.0947 
    112 H112       25.3732    1.1169  -10.3777 H         1 UNK         0.0806 
    113 H113       24.2044    0.7823   -9.1088 H         1 UNK         0.0806 
    114 H114       25.8875    0.2928   -8.9124 H         1 UNK         0.0806 
    115 H115       27.7187    1.8644   -7.4478 H         1 UNK         0.3000 
    116 H116       29.8665    2.2461   -7.4952 H         1 UNK         0.0850 
    117 H117       30.8912    4.2764   -8.3836 H         1 UNK         0.0810 
    118 H118       29.3514    4.7282   -7.6858 H         1 UNK         0.0810 
    119 H119       29.5144    4.5976   -9.4337 H         1 UNK         0.0810 
    120 H120       31.4594    3.0401   -9.8455 H         1 UNK         0.3040 
    121 H121       32.5677    2.2278  -11.5439 H         1 UNK         0.0766 
    122 H122       30.4639    2.4937  -12.8336 H         1 UNK         0.0812 
    123 H123       29.9866    0.8435  -12.4392 H         1 UNK         0.0812 
    124 H124       31.4043    1.1367  -13.4325 H         1 UNK         0.0812 
    125 H125       30.7595   -0.3479   -9.9339 H         1 UNK         0.3205 
    126 H126       32.2031   -2.6015  -10.7354 H         1 UNK         0.0754 
    127 H127       31.2710   -3.6421   -8.6418 H         1 UNK         0.0769 
    128 H128       30.0588   -2.7083   -9.5029 H         1 UNK         0.0769 
    129 H129       30.8134   -2.0485   -8.0542 H         1 UNK         0.0769 
    130 H130       33.1550   -0.2065   -8.3556 H         1 UNK         0.2981 
    131 H131       35.4807   -1.7461   -7.4137 H         1 UNK         0.0541 
    132 H132       34.9984   -0.0722  -10.3359 H         1 UNK         0.3459 
    133 H133       36.6551    0.4445  -10.5196 H         1 UNK         0.3459 
    134 H134       35.8905    0.4622   -6.0889 H         1 UNK         0.0612 
    135 H135       34.3145    0.9696   -6.6266 H         1 UNK         0.0612 
    136 H136       32.2711    0.5010   -5.3032 H         1 UNK         0.0624 
    137 H137       32.0811   -1.0364   -6.1192 H         1 UNK         0.0624 
@<TRIPOS>BOND
     1    1    2 1    
     2    1   72 1    
     3    1   73 1    
     4    1   74 1    
     5    2    3 2    
     6    2    4 am   BACKBONE|DICT|INTERRES
     7    4    5 1    
     8    4   75 1    
     9    5    6 1    
    10    5   35 1    
    11    5   76 1    
    12    6    7 1    
    13    6   77 1    
    14    6   78 1    
    15    7    8 1    
    16    8    9 1    
    17    8   79 1    
    18    8   80 1    
    19    9   10 ar   
    20    9   14 ar   
    21   10   11 ar   
    22   10   81 1    
    23   11   12 ar   
    24   11   71 1    
    25   12   13 ar   
    26   12   82 1    
    27   13   14 ar   
    28   13   15 1    
    29   14   83 1    
    30   15   16 1    
    31   15   84 1    
    32   15   85 1    
    33   16   17 1    
    34   17   18 1    
    35   17   86 1    
    36   17   87 1    
    37   18   19 1    
    38   18   37 1    
    39   18   88 1    
    40   19   20 am   BACKBONE|DICT|INTERRES
    41   19   89 1    
    42   20   21 2    
    43   20   22 1    
    44   22   23 1    
    45   22   24 1    
    46   22   90 1    
    47   23   91 1    
    48   23   92 1    
    49   23   93 1    
    50   24   25 am   BACKBONE|DICT|INTERRES
    51   24   94 1    
    52   25   26 2    
    53   25   27 1    
    54   27   28 1    
    55   27   29 1    
    56   27   95 1    
    57   28   96 1    
    58   28   97 1    
    59   28   98 1    
    60   29   30 am   BACKBONE|DICT|INTERRES
    61   29   99 1    
    62   30   31 2    
    63   30   32 1    
    64   32   33 1    
    65   32   34 1    
    66   32  100 1    
    67   33  101 1    
    68   33  102 1    
    69   33  103 1    
    70   34   35 am   BACKBONE|DICT|INTERRES
    71   34  104 1    
    72   35   36 2    
    73   37   38 2    
    74   37   39 am   BACKBONE|DICT|INTERRES
    75   39   40 1    
    76   39  105 1    
    77   40   41 1    
    78   40   42 1    
    79   40  106 1    
    80   41  107 1    
    81   41  108 1    
    82   41  109 1    
    83   42   43 2    
    84   42   44 am   BACKBONE|DICT|INTERRES
    85   44   45 1    
    86   44  110 1    
    87   45   46 1    
    88   45   47 1    
    89   45  111 1    
    90   46  112 1    
    91   46  113 1    
    92   46  114 1    
    93   47   48 2    
    94   47   49 am   BACKBONE|DICT|INTERRES
    95   49   50 1    
    96   49  115 1    
    97   50   51 1    
    98   50   52 1    
    99   50  116 1    
   100   51  117 1    
   101   51  118 1    
   102   51  119 1    
   103   52   53 2    
   104   52   54 am   BACKBONE|DICT|INTERRES
   105   54   55 1    
   106   54  120 1    
   107   55   56 1    
   108   55   57 1    
   109   55  121 1    
   110   56  122 1    
   111   56  123 1    
   112   56  124 1    
   113   57   58 2    
   114   57   59 am   BACKBONE|DICT|INTERRES
   115   59   60 1    
   116   59  125 1    
   117   60   61 1    
   118   60   62 1    
   119   60  126 1    
   120   61  127 1    
   121   61  128 1    
   122   61  129 1    
   123   62   63 2    
   124   62   64 am   BACKBONE|DICT|INTERRES
   125   64   65 1    
   126   64  130 1    
   127   65   66 1    
   128   65   69 1    
   129   65  131 1    
   130   66   67 am   BACKBONE|DICT|INTERRES
   131   66   68 2    
   132   67  132 1    
   133   67  133 1    
   134   69   70 1    
   135   69  134 1    
   136   69  135 1    
   137   70   71 1    
   138   71  136 1    
   139   71  137 1    
@<TRIPOS>SUBSTRUCTURE
     1 UNK         1 GROUP             0       ****    0 ROOT    
