@<TRIPOS>MOLECULE
3R137
137   139    1
SMALL
USER_CHARGES


@<TRIPOS>ATOM
      1 CA         26.5697   -3.4159    3.1551 C.3       0 UNK        -0.2020 
      2 C          26.4559   -2.1331    2.3456 C.2       0 UNK         0.4855 
      3 O          25.4062   -1.4900    2.3621 O.2       0 UNK        -0.5197 
      4 N          27.5299   -1.7552    1.6404 N.am      1 UNK        -0.4892 
      5 CA         27.6027   -0.5763    0.7664 C.3       1 UNK         0.0835 
      6 C6         29.0666   -0.2131    0.4096 C.3       12 UNK        -0.0855 
      7 S7         30.0430   -1.6290   -0.2097 S.3       12 UNK        -0.2931 
      8 C8         30.2662   -1.1551   -1.9461 C.3       12 UNK         0.0378 
      9 C9         30.6622   -2.3558   -2.7864 C.ar      12 UNK        -0.0802 
     10 C10        32.0033   -2.7257   -2.9177 C.ar      12 UNK        -0.0944 
     11 C11        32.3656   -3.7997   -3.7383 C.ar      12 UNK        -0.0787 
     12 C12        31.3703   -4.5149   -4.4142 C.ar      12 UNK        -0.0862 
     13 C13        30.0305   -4.1310   -4.3138 C.ar      12 UNK        -0.0733 
     14 C14        29.6808   -3.0700   -3.4742 C.ar      12 UNK        -0.0832 
     15 C15        28.9717   -4.7922   -5.1860 C.3       12 UNK         0.0240 
     16 S16        29.1649   -4.3392   -6.9460 S.3       12 UNK        -0.2522 
     17 C17        29.2139   -2.5120   -6.8868 C.3       12 UNK        -0.0967 
     18 CA         28.0303   -1.8211   -7.6005 C.3       5 UNK         0.0660 
     19 N          26.7232   -2.2764   -7.1276 N.am      5 UNK        -0.4015 
     20 C          25.7142   -2.6289   -7.9362 C.2       4 UNK         0.4946 
     21 O          25.8110   -2.7402   -9.1593 O.2       4 UNK        -0.5353 
     22 CA         24.3426   -2.8681   -7.2769 C.3       4 UNK         0.0277 
     23 CB         24.1805   -4.3515   -6.9062 C.3       4 UNK        -0.1981 
     24 N          24.0935   -2.0437   -6.0896 N.am      4 UNK        -0.4209 
     25 C          24.1821   -0.7060   -6.0300 C.2       3 UNK         0.4942 
     26 O          24.4604    0.0090   -6.9902 O.2       3 UNK        -0.5208 
     27 CA         23.9901   -0.0489   -4.6557 C.3       3 UNK         0.0250 
     28 CB         22.5413    0.4376   -4.4962 C.3       3 UNK        -0.1990 
     29 N          24.3446   -0.9065   -3.5204 N.am      3 UNK        -0.4232 
     30 C          25.5373   -1.4779   -3.2928 C.2       2 UNK         0.4993 
     31 O          26.5103   -1.3901   -4.0516 O.2       2 UNK        -0.5286 
     32 CA         25.6129   -2.3521   -2.0271 C.3       2 UNK         0.0209 
     33 CB         25.8556   -3.8266   -2.3903 C.3       2 UNK        -0.1931 
     34 N          26.6014   -1.9217   -1.0336 N.am      2 UNK        -0.4546 
     35 C          26.6928   -0.7026   -0.4772 C.2       1 UNK         0.5154 
     36 O          26.0496    0.2791   -0.8512 O.2       1 UNK        -0.5181 
     37 C          28.1486   -0.2976   -7.4210 C.2       5 UNK         0.5014 
     38 O          28.6172    0.3798   -8.3375 O.2       5 UNK        -0.5248 
     39 N          27.7597    0.2167   -6.2414 N.am      6 UNK        -0.4434 
     40 CA         28.0249    1.5969   -5.8278 C.3       6 UNK         0.0363 
     41 CB         27.7260    1.7639   -4.3295 C.3       6 UNK        -0.1936 
     42 C          27.3063    2.6709   -6.6612 C.2       6 UNK         0.5081 
     43 O          27.8989    3.7229   -6.8994 O.2       6 UNK        -0.5248 
     44 N          26.0780    2.3997   -7.1290 N.am      7 UNK        -0.4718 
     45 CA         25.3229    3.3236   -7.9879 C.3       7 UNK         0.0273 
     46 CB         23.8304    2.9570   -7.9756 C.3       7 UNK        -0.1935 
     47 C          25.8587    3.3619   -9.4297 C.2       7 UNK         0.5018 
     48 O          25.6970    4.3768  -10.1078 O.2       7 UNK        -0.5186 
     49 N          26.5078    2.2715   -9.8599 N.am      8 UNK        -0.4240 
     50 CA         27.2215    2.1678  -11.1343 C.3       8 UNK         0.0235 
     51 CB         27.2222    0.6946  -11.5798 C.3       8 UNK        -0.2000 
     52 C          28.6630    2.7075  -11.0509 C.2       8 UNK         0.4941 
     53 O          29.3214    2.7998  -12.0876 O.2       8 UNK        -0.5273 
     54 N          29.1325    3.0245   -9.8325 N.am      9 UNK        -0.4262 
     55 CA         30.4993    3.4129   -9.4658 C.3       9 UNK         0.0264 
     56 CB         30.8746    4.7766  -10.0842 C.3       9 UNK        -0.1955 
     57 C          31.5344    2.3067   -9.7585 C.2       9 UNK         0.5031 
     58 O          32.6770    2.6111  -10.1089 O.2       9 UNK        -0.5390 
     59 N          31.1158    1.0433   -9.6127 N.am      10 UNK        -0.4204 
     60 CA         31.9531   -0.1415   -9.7871 C.3       10 UNK         0.0237 
     61 CB         31.0801   -1.2788  -10.3458 C.3       10 UNK        -0.1985 
     62 C          32.6047   -0.5483   -8.4557 C.2       10 UNK         0.4970 
     63 O          32.1659   -0.1050   -7.3910 O.2       10 UNK        -0.4914 
     64 N          33.6166   -1.4205   -8.5498 N.am      11 UNK        -0.4285 
     65 CA         34.4070   -1.9529   -7.4278 C.3       11 UNK         0.1007 
     66 C          35.3530   -0.8967   -6.7786 C.2       11 UNK         0.5703 
     67 N          35.9462   -1.2029   -5.6327 N.am      11 UNK        -0.7361 
     68 O          35.5959    0.1790   -7.3236 O.2       11 UNK        -0.4986 
     69 C69        33.5208   -2.7246   -6.4041 C.3       12 UNK        -0.0947 
     70 S70        34.3308   -4.2040   -5.7013 S.3       12 UNK        -0.2240 
     71 C71        33.8396   -4.1361   -3.9410 C.3       12 UNK         0.0194 
     72 H72        25.8219   -4.1359    2.8239 H         1 UNK         0.0906 
     73 H73        26.3996   -3.2093    4.2114 H         1 UNK         0.0906 
     74 H74        27.5522   -3.8769    3.0540 H         1 UNK         0.0906 
     75 H75        28.3698   -2.3180    1.6636 H         1 UNK         0.3140 
     76 H76        27.2008    0.2630    1.3394 H         1 UNK         0.1085 
     77 H77        29.5686    0.1548    1.3059 H         1 UNK         0.0836 
     78 H78        29.1019    0.6180   -0.2980 H         1 UNK         0.0836 
     79 H79        29.3402   -0.7250   -2.3318 H         1 UNK         0.0731 
     80 H80        31.0243   -0.3737   -2.0176 H         1 UNK         0.0731 
     81 H81        32.7649   -2.1592   -2.3993 H         1 UNK         0.1312 
     82 H82        31.6457   -5.3243   -5.0765 H         1 UNK         0.1406 
     83 H83        28.6499   -2.7541   -3.4022 H         1 UNK         0.1631 
     84 H84        27.9683   -4.5133   -4.8618 H         1 UNK         0.0717 
     85 H85        29.0396   -5.8761   -5.0852 H         1 UNK         0.0717 
     86 H86        29.2672   -2.1670   -5.8574 H         1 UNK         0.0934 
     87 H87        30.1579   -2.2012   -7.3372 H         1 UNK         0.0934 
     88 H88        28.1301   -2.0269   -8.6680 H         1 UNK         0.0739 
     89 H89        26.5466   -2.2076   -6.1337 H         1 UNK         0.3093 
     90 H90        23.5796   -2.6103   -8.0142 H         1 UNK         0.0818 
     91 H91        24.3379   -4.9900   -7.7768 H         1 UNK         0.0819 
     92 H92        24.8981   -4.6587   -6.1441 H         1 UNK         0.0819 
     93 H93        23.1787   -4.5616   -6.5311 H         1 UNK         0.0819 
     94 H94        23.8516   -2.5356   -5.2424 H         1 UNK         0.3041 
     95 H95        24.6403    0.8250   -4.6238 H         1 UNK         0.0784 
     96 H96        22.2575    1.0959   -5.3189 H         1 UNK         0.0793 
     97 H97        21.8338   -0.3925   -4.4848 H         1 UNK         0.0793 
     98 H98        22.4115    1.0040   -3.5737 H         1 UNK         0.0793 
     99 H99        23.6154   -1.0419   -2.8347 H         1 UNK         0.3024 
    100 H100       24.6442   -2.3016   -1.5251 H         1 UNK         0.1171 
    101 H101       25.1478   -4.1688   -3.1466 H         1 UNK         0.0786 
    102 H102       26.8567   -3.9915   -2.7840 H         1 UNK         0.0786 
    103 H103       25.7319   -4.4726   -1.5209 H         1 UNK         0.0786 
    104 H104       27.1943   -2.6432   -0.6503 H         1 UNK         0.2977 
    105 H105       27.3726   -0.3926   -5.5266 H         1 UNK         0.3127 
    106 H106       29.0963    1.7631   -5.9633 H         1 UNK         0.0770 
    107 H107       26.6753    1.5989   -4.0990 H         1 UNK         0.0814 
    108 H108       27.9770    2.7705   -3.9926 H         1 UNK         0.0814 
    109 H109       28.3103    1.0677   -3.7283 H         1 UNK         0.0814 
    110 H110       25.6468    1.4969   -6.9428 H         1 UNK         0.2983 
    111 H111       25.4221    4.3305   -7.5758 H         1 UNK         0.0947 
    112 H112       23.6439    2.0001   -8.4641 H         1 UNK         0.0806 
    113 H113       23.2433    3.7082   -8.5054 H         1 UNK         0.0806 
    114 H114       23.4418    2.8985   -6.9589 H         1 UNK         0.0806 
    115 H115       26.6083    1.4931   -9.2222 H         1 UNK         0.3000 
    116 H116       26.6953    2.7541  -11.8907 H         1 UNK         0.0850 
    117 H117       27.7010    0.5810  -12.5533 H         1 UNK         0.0810 
    118 H118       26.2076    0.3067  -11.6721 H         1 UNK         0.0810 
    119 H119       27.7615    0.0578  -10.8776 H         1 UNK         0.0810 
    120 H120       28.5031    2.9019   -9.0502 H         1 UNK         0.3040 
    121 H121       30.4932    3.5354   -8.3816 H         1 UNK         0.0766 
    122 H122       30.9677    4.7183  -11.1690 H         1 UNK         0.0812 
    123 H123       31.8298    5.1318   -9.6958 H         1 UNK         0.0812 
    124 H124       30.1286    5.5362   -9.8508 H         1 UNK         0.0812 
    125 H125       30.1839    0.8807   -9.2349 H         1 UNK         0.3205 
    126 H126       32.7453    0.0730  -10.5076 H         1 UNK         0.0754 
    127 H127       31.6671   -2.1804  -10.5246 H         1 UNK         0.0769 
    128 H128       30.6267   -0.9959  -11.2962 H         1 UNK         0.0769 
    129 H129       30.2753   -1.5443   -9.6622 H         1 UNK         0.0769 
    130 H130       33.9214   -1.7115   -9.4673 H         1 UNK         0.2981 
    131 H131       35.0770   -2.6695   -7.9039 H         1 UNK         0.0541 
    132 H132       36.5756   -0.5400   -5.2082 H         1 UNK         0.3459 
    133 H133       35.7740   -2.0945   -5.1943 H         1 UNK         0.3459 
    134 H134       32.6110   -3.0871   -6.8856 H         1 UNK         0.0612 
    135 H135       33.1817   -2.0536   -5.6132 H         1 UNK         0.0612 
    136 H136       34.0523   -5.1000   -3.4773 H         1 UNK         0.0624 
    137 H137       34.4728   -3.4042   -3.4375 H         1 UNK         0.0624 
@<TRIPOS>BOND
     1    1    2 1    
     2    1   72 1    
     3    1   73 1    
     4    1   74 1    
     5    2    3 2    
     6    2    4 am   BACKBONE|DICT|INTERRES
     7    4    5 1    
     8    4   75 1    
     9    5    6 1    
    10    5   35 1    
    11    5   76 1    
    12    6    7 1    
    13    6   77 1    
    14    6   78 1    
    15    7    8 1    
    16    8    9 1    
    17    8   79 1    
    18    8   80 1    
    19    9   10 ar   
    20    9   14 ar   
    21   10   11 ar   
    22   10   81 1    
    23   11   12 ar   
    24   11   71 1    
    25   12   13 ar   
    26   12   82 1    
    27   13   14 ar   
    28   13   15 1    
    29   14   83 1    
    30   15   16 1    
    31   15   84 1    
    32   15   85 1    
    33   16   17 1    
    34   17   18 1    
    35   17   86 1    
    36   17   87 1    
    37   18   19 1    
    38   18   37 1    
    39   18   88 1    
    40   19   20 am   BACKBONE|DICT|INTERRES
    41   19   89 1    
    42   20   21 2    
    43   20   22 1    
    44   22   23 1    
    45   22   24 1    
    46   22   90 1    
    47   23   91 1    
    48   23   92 1    
    49   23   93 1    
    50   24   25 am   BACKBONE|DICT|INTERRES
    51   24   94 1    
    52   25   26 2    
    53   25   27 1    
    54   27   28 1    
    55   27   29 1    
    56   27   95 1    
    57   28   96 1    
    58   28   97 1    
    59   28   98 1    
    60   29   30 am   BACKBONE|DICT|INTERRES
    61   29   99 1    
    62   30   31 2    
    63   30   32 1    
    64   32   33 1    
    65   32   34 1    
    66   32  100 1    
    67   33  101 1    
    68   33  102 1    
    69   33  103 1    
    70   34   35 am   BACKBONE|DICT|INTERRES
    71   34  104 1    
    72   35   36 2    
    73   37   38 2    
    74   37   39 am   BACKBONE|DICT|INTERRES
    75   39   40 1    
    76   39  105 1    
    77   40   41 1    
    78   40   42 1    
    79   40  106 1    
    80   41  107 1    
    81   41  108 1    
    82   41  109 1    
    83   42   43 2    
    84   42   44 am   BACKBONE|DICT|INTERRES
    85   44   45 1    
    86   44  110 1    
    87   45   46 1    
    88   45   47 1    
    89   45  111 1    
    90   46  112 1    
    91   46  113 1    
    92   46  114 1    
    93   47   48 2    
    94   47   49 am   BACKBONE|DICT|INTERRES
    95   49   50 1    
    96   49  115 1    
    97   50   51 1    
    98   50   52 1    
    99   50  116 1    
   100   51  117 1    
   101   51  118 1    
   102   51  119 1    
   103   52   53 2    
   104   52   54 am   BACKBONE|DICT|INTERRES
   105   54   55 1    
   106   54  120 1    
   107   55   56 1    
   108   55   57 1    
   109   55  121 1    
   110   56  122 1    
   111   56  123 1    
   112   56  124 1    
   113   57   58 2    
   114   57   59 am   BACKBONE|DICT|INTERRES
   115   59   60 1    
   116   59  125 1    
   117   60   61 1    
   118   60   62 1    
   119   60  126 1    
   120   61  127 1    
   121   61  128 1    
   122   61  129 1    
   123   62   63 2    
   124   62   64 am   BACKBONE|DICT|INTERRES
   125   64   65 1    
   126   64  130 1    
   127   65   66 1    
   128   65   69 1    
   129   65  131 1    
   130   66   67 am   BACKBONE|DICT|INTERRES
   131   66   68 2    
   132   67  132 1    
   133   67  133 1    
   134   69   70 1    
   135   69  134 1    
   136   69  135 1    
   137   70   71 1    
   138   71  136 1    
   139   71  137 1    
@<TRIPOS>SUBSTRUCTURE
     1 UNK         1 GROUP             0       ****    0 ROOT    
