@<TRIPOS>MOLECULE
3R137
137   139    1
SMALL
USER_CHARGES


@<TRIPOS>ATOM
      1 CA         23.8748   -5.8598   -1.8542 C.3       0 UNK        -0.2020 
      2 C          25.0103   -6.0900   -2.8483 C.2       0 UNK         0.4855 
      3 O          24.7858   -6.7309   -3.8723 O.2       0 UNK        -0.5197 
      4 N          26.2386   -5.6136   -2.6046 N.am      1 UNK        -0.4892 
      5 CA         26.6923   -4.7317   -1.5244 C.3       1 UNK         0.0835 
      6 C6         28.2209   -4.8792   -1.2612 C.3       12 UNK        -0.0855 
      7 S7         29.2681   -5.1087   -2.7506 S.3       12 UNK        -0.2931 
      8 C8         30.8424   -4.3333   -2.2603 C.3       12 UNK         0.0378 
      9 C9         30.8982   -2.8600   -2.6394 C.ar      12 UNK        -0.0802 
     10 C10        31.4719   -2.4607   -3.8514 C.ar      12 UNK        -0.0944 
     11 C11        31.5397   -1.1054   -4.1944 C.ar      12 UNK        -0.0787 
     12 C12        31.0209   -0.1468   -3.3199 C.ar      12 UNK        -0.0862 
     13 C13        30.4324   -0.5354   -2.1137 C.ar      12 UNK        -0.0733 
     14 C14        30.3888   -1.8905   -1.7733 C.ar      12 UNK        -0.0832 
     15 C15        29.8377    0.4959   -1.1685 C.3       12 UNK         0.0240 
     16 S16        28.0407    0.2634   -1.0068 S.3       12 UNK        -0.2522 
     17 C17        27.3538    1.5060   -2.1479 C.3       12 UNK        -0.0967 
     18 CA         27.7310    1.3590   -3.6469 C.3       5 UNK         0.0660 
     19 N          27.5502    0.0069   -4.1952 N.am      5 UNK        -0.4015 
     20 C          27.9098   -0.3565   -5.4391 C.2       4 UNK         0.4946 
     21 O          28.5199    0.3748   -6.2189 O.2       4 UNK        -0.5353 
     22 CA         27.4618   -1.7378   -5.9374 C.3       4 UNK         0.0277 
     23 CB         28.4903   -2.8171   -5.5792 C.3       4 UNK        -0.1981 
     24 N          26.1462   -2.1000   -5.4126 N.am      4 UNK        -0.4209 
     25 C          24.9939   -1.5752   -5.8544 C.2       3 UNK         0.4942 
     26 O          24.9234   -0.7760   -6.7870 O.2       3 UNK        -0.5208 
     27 CA         23.7074   -1.9715   -5.1083 C.3       3 UNK         0.0250 
     28 CB         23.1386   -3.2832   -5.6723 C.3       3 UNK        -0.1990 
     29 N          23.9011   -2.1065   -3.6634 N.am      3 UNK        -0.4232 
     30 C          24.2628   -1.1078   -2.8459 C.2       2 UNK         0.4993 
     31 O          24.3952    0.0593   -3.2135 O.2       2 UNK        -0.5286 
     32 CA         24.5858   -1.4826   -1.3870 C.3       2 UNK         0.0209 
     33 CB         23.3270   -1.3577   -0.5143 C.3       2 UNK        -0.1931 
     34 N          25.1727   -2.8202   -1.2076 N.am      2 UNK        -0.4546 
     35 C          26.2687   -3.2812   -1.8319 C.2       1 UNK         0.5154 
     36 O          26.8912   -2.6262   -2.6667 O.2       1 UNK        -0.5181 
     37 C          26.9557    2.4080   -4.4696 C.2       5 UNK         0.5014 
     38 O          27.5141    3.4552   -4.7990 O.2       5 UNK        -0.5248 
     39 N          25.6886    2.0993   -4.7859 N.am      6 UNK        -0.4434 
     40 CA         24.8056    2.9249   -5.6103 C.3       6 UNK         0.0363 
     41 CB         23.3757    2.3637   -5.5542 C.3       6 UNK        -0.1936 
     42 C          25.2862    3.0495   -7.0658 C.2       6 UNK         0.5081 
     43 O          25.2308    4.1461   -7.6233 O.2       6 UNK        -0.5248 
     44 N          25.7490    1.9363   -7.6536 N.am      7 UNK        -0.4718 
     45 CA         26.3019    1.8928   -9.0094 C.3       7 UNK         0.0273 
     46 CB         26.4453    0.4325   -9.4679 C.3       7 UNK        -0.1935 
     47 C          27.6485    2.6221   -9.1339 C.2       7 UNK         0.5018 
     48 O          27.8750    3.2909  -10.1433 O.2       7 UNK        -0.5186 
     49 N          28.5251    2.4517   -8.1317 N.am      8 UNK        -0.4240 
     50 CA         29.8951    2.9690   -7.9936 C.3       8 UNK         0.0235 
     51 CB         29.9283    4.5089   -7.9942 C.3       8 UNK        -0.2000 
     52 C          30.8920    2.3823   -9.0088 C.2       8 UNK         0.4941 
     53 O          31.9664    1.9310   -8.6106 O.2       8 UNK        -0.5273 
     54 N          30.5032    2.3421  -10.2908 N.am      9 UNK        -0.4262 
     55 CA         31.2510    1.7814  -11.4223 C.3       9 UNK         0.0264 
     56 CB         30.4540    2.0185  -12.7149 C.3       9 UNK        -0.1955 
     57 C          31.6048    0.2898  -11.2759 C.2       9 UNK         0.5031 
     58 O          32.5533   -0.1673  -11.9141 O.2       9 UNK        -0.5390 
     59 N          30.8810   -0.4279  -10.4048 N.am      10 UNK        -0.4204 
     60 CA         31.1652   -1.7980   -9.9699 C.3       10 UNK         0.0237 
     61 CB         30.0635   -2.2412   -8.9930 C.3       10 UNK        -0.1985 
     62 C          32.5579   -1.9759   -9.3299 C.2       10 UNK         0.4970 
     63 O          33.1170   -3.0696   -9.4156 O.2       10 UNK        -0.4914 
     64 N          33.0950   -0.9067   -8.7266 N.am      11 UNK        -0.4285 
     65 CA         34.4673   -0.8321   -8.2053 C.3       11 UNK         0.1007 
     66 C          35.5141   -0.3851   -9.2706 C.2       11 UNK         0.5703 
     67 N          35.1491   -0.1269  -10.5217 N.am      11 UNK        -0.7361 
     68 O          36.6997   -0.2912   -8.9613 O.2       11 UNK        -0.4986 
     69 C69        34.5222    0.0465   -6.9251 C.3       12 UNK        -0.0947 
     70 S70        33.9804   -0.8530   -5.4363 S.3       12 UNK        -0.2240 
     71 C71        32.1728   -0.6754   -5.5082 C.3       12 UNK         0.0194 
     72 H72        24.1984   -5.9872   -0.8227 H         1 UNK         0.0906 
     73 H73        23.4427   -4.8685   -1.9771 H         1 UNK         0.0906 
     74 H74        23.0789   -6.5844   -2.0266 H         1 UNK         0.0906 
     75 H75        26.9622   -5.7966   -3.2873 H         1 UNK         0.3140 
     76 H76        26.2018   -5.0253   -0.5955 H         1 UNK         0.1085 
     77 H77        28.3828   -5.7586   -0.6359 H         1 UNK         0.0836 
     78 H78        28.5903   -4.0410   -0.6693 H         1 UNK         0.0836 
     79 H79        31.6574   -4.8680   -2.7505 H         1 UNK         0.0731 
     80 H80        31.0047   -4.4592   -1.1887 H         1 UNK         0.0731 
     81 H81        31.8710   -3.2034   -4.5285 H         1 UNK         0.1312 
     82 H82        31.0703    0.9004   -3.5835 H         1 UNK         0.1406 
     83 H83        29.9397   -2.1864   -0.8361 H         1 UNK         0.1631 
     84 H84        30.0593    1.5135   -1.4934 H         1 UNK         0.0717 
     85 H85        30.2966    0.3803   -0.1856 H         1 UNK         0.0717 
     86 H86        26.2705    1.4756   -2.0206 H         1 UNK         0.0934 
     87 H87        27.6592    2.4897   -1.7854 H         1 UNK         0.0934 
     88 H88        28.7894    1.5997   -3.7505 H         1 UNK         0.0739 
     89 H89        27.1236   -0.6838   -3.5883 H         1 UNK         0.3093 
     90 H90        27.3942   -1.6956   -7.0261 H         1 UNK         0.0818 
     91 H91        29.4557   -2.6041   -6.0371 H         1 UNK         0.0819 
     92 H92        28.6543   -2.8685   -4.5045 H         1 UNK         0.0819 
     93 H93        28.1765   -3.8032   -5.9209 H         1 UNK         0.0819 
     94 H94        26.1444   -2.6666   -4.5723 H         1 UNK         0.3041 
     95 H95        22.9737   -1.1796   -5.2735 H         1 UNK         0.0784 
     96 H96        22.9692   -3.2033   -6.7472 H         1 UNK         0.0793 
     97 H97        23.8166   -4.1226   -5.5107 H         1 UNK         0.0793 
     98 H98        22.1813   -3.5311   -5.2133 H         1 UNK         0.0793 
     99 H99        23.8106   -3.0321   -3.2748 H         1 UNK         0.3024 
    100 H100       25.3176   -0.7573   -1.0292 H         1 UNK         0.1171 
    101 H101       23.5594   -1.4997    0.5413 H         1 UNK         0.0786 
    102 H102       22.8804   -0.3670   -0.6134 H         1 UNK         0.0786 
    103 H103       22.5661   -2.0875   -0.7935 H         1 UNK         0.0786 
    104 H104       24.7182   -3.4099   -0.5256 H         1 UNK         0.2977 
    105 H105       25.2859    1.2479   -4.3991 H         1 UNK         0.3127 
    106 H106       24.7937    3.9281   -5.1789 H         1 UNK         0.0770 
    107 H107       22.6909    2.9815   -6.1364 H         1 UNK         0.0814 
    108 H108       23.0000    2.3373   -4.5311 H         1 UNK         0.0814 
    109 H109       23.3231    1.3509   -5.9547 H         1 UNK         0.0814 
    110 H110       25.6845    1.0537   -7.1551 H         1 UNK         0.2983 
    111 H111       25.5949    2.3905   -9.6769 H         1 UNK         0.0947 
    112 H112       26.8286    0.3780  -10.4878 H         1 UNK         0.0806 
    113 H113       25.4845   -0.0825   -9.4558 H         1 UNK         0.0806 
    114 H114       27.1313   -0.1255   -8.8304 H         1 UNK         0.0806 
    115 H115       28.2601    1.8081   -7.3873 H         1 UNK         0.3000 
    116 H116       30.2266    2.6371   -7.0079 H         1 UNK         0.0850 
    117 H117       30.9350    4.8751   -7.7886 H         1 UNK         0.0810 
    118 H118       29.2712    4.9155   -7.2250 H         1 UNK         0.0810 
    119 H119       29.6212    4.9275   -8.9529 H         1 UNK         0.0810 
    120 H120       29.5876    2.7385  -10.4962 H         1 UNK         0.3040 
    121 H121       32.1932    2.3287  -11.4916 H         1 UNK         0.0766 
    122 H122       30.2809    3.0813  -12.8851 H         1 UNK         0.0812 
    123 H123       29.4837    1.5209  -12.6871 H         1 UNK         0.0812 
    124 H124       30.9930    1.6365  -13.5832 H         1 UNK         0.0812 
    125 H125       30.1235    0.0448   -9.9353 H         1 UNK         0.3205 
    126 H126       31.1279   -2.4401  -10.8523 H         1 UNK         0.0754 
    127 H127       30.2511   -3.2480   -8.6168 H         1 UNK         0.0769 
    128 H128       29.0861   -2.2549   -9.4758 H         1 UNK         0.0769 
    129 H129       30.0011   -1.5746   -8.1319 H         1 UNK         0.0769 
    130 H130       32.5844   -0.0299   -8.7227 H         1 UNK         0.2981 
    131 H131       34.7852   -1.8381   -7.9250 H         1 UNK         0.0541 
    132 H132       34.1878   -0.2228  -10.8304 H         1 UNK         0.3459 
    133 H133       35.8554    0.1503  -11.1842 H         1 UNK         0.3459 
    134 H134       33.9396    0.9612   -7.0432 H         1 UNK         0.0612 
    135 H135       35.5419    0.3735   -6.7144 H         1 UNK         0.0612 
    136 H136       31.9122    0.3579   -5.7439 H         1 UNK         0.0624 
    137 H137       31.7766   -1.2895   -6.3168 H         1 UNK         0.0624 
@<TRIPOS>BOND
     1    1    2 1    
     2    1   72 1    
     3    1   73 1    
     4    1   74 1    
     5    2    3 2    
     6    2    4 am   BACKBONE|DICT|INTERRES
     7    4    5 1    
     8    4   75 1    
     9    5    6 1    
    10    5   35 1    
    11    5   76 1    
    12    6    7 1    
    13    6   77 1    
    14    6   78 1    
    15    7    8 1    
    16    8    9 1    
    17    8   79 1    
    18    8   80 1    
    19    9   10 ar   
    20    9   14 ar   
    21   10   11 ar   
    22   10   81 1    
    23   11   12 ar   
    24   11   71 1    
    25   12   13 ar   
    26   12   82 1    
    27   13   14 ar   
    28   13   15 1    
    29   14   83 1    
    30   15   16 1    
    31   15   84 1    
    32   15   85 1    
    33   16   17 1    
    34   17   18 1    
    35   17   86 1    
    36   17   87 1    
    37   18   19 1    
    38   18   37 1    
    39   18   88 1    
    40   19   20 am   BACKBONE|DICT|INTERRES
    41   19   89 1    
    42   20   21 2    
    43   20   22 1    
    44   22   23 1    
    45   22   24 1    
    46   22   90 1    
    47   23   91 1    
    48   23   92 1    
    49   23   93 1    
    50   24   25 am   BACKBONE|DICT|INTERRES
    51   24   94 1    
    52   25   26 2    
    53   25   27 1    
    54   27   28 1    
    55   27   29 1    
    56   27   95 1    
    57   28   96 1    
    58   28   97 1    
    59   28   98 1    
    60   29   30 am   BACKBONE|DICT|INTERRES
    61   29   99 1    
    62   30   31 2    
    63   30   32 1    
    64   32   33 1    
    65   32   34 1    
    66   32  100 1    
    67   33  101 1    
    68   33  102 1    
    69   33  103 1    
    70   34   35 am   BACKBONE|DICT|INTERRES
    71   34  104 1    
    72   35   36 2    
    73   37   38 2    
    74   37   39 am   BACKBONE|DICT|INTERRES
    75   39   40 1    
    76   39  105 1    
    77   40   41 1    
    78   40   42 1    
    79   40  106 1    
    80   41  107 1    
    81   41  108 1    
    82   41  109 1    
    83   42   43 2    
    84   42   44 am   BACKBONE|DICT|INTERRES
    85   44   45 1    
    86   44  110 1    
    87   45   46 1    
    88   45   47 1    
    89   45  111 1    
    90   46  112 1    
    91   46  113 1    
    92   46  114 1    
    93   47   48 2    
    94   47   49 am   BACKBONE|DICT|INTERRES
    95   49   50 1    
    96   49  115 1    
    97   50   51 1    
    98   50   52 1    
    99   50  116 1    
   100   51  117 1    
   101   51  118 1    
   102   51  119 1    
   103   52   53 2    
   104   52   54 am   BACKBONE|DICT|INTERRES
   105   54   55 1    
   106   54  120 1    
   107   55   56 1    
   108   55   57 1    
   109   55  121 1    
   110   56  122 1    
   111   56  123 1    
   112   56  124 1    
   113   57   58 2    
   114   57   59 am   BACKBONE|DICT|INTERRES
   115   59   60 1    
   116   59  125 1    
   117   60   61 1    
   118   60   62 1    
   119   60  126 1    
   120   61  127 1    
   121   61  128 1    
   122   61  129 1    
   123   62   63 2    
   124   62   64 am   BACKBONE|DICT|INTERRES
   125   64   65 1    
   126   64  130 1    
   127   65   66 1    
   128   65   69 1    
   129   65  131 1    
   130   66   67 am   BACKBONE|DICT|INTERRES
   131   66   68 2    
   132   67  132 1    
   133   67  133 1    
   134   69   70 1    
   135   69  134 1    
   136   69  135 1    
   137   70   71 1    
   138   71  136 1    
   139   71  137 1    
@<TRIPOS>SUBSTRUCTURE
     1 UNK         1 GROUP             0       ****    0 ROOT    
