@<TRIPOS>MOLECULE
3R137
137   139    1
SMALL
USER_CHARGES


@<TRIPOS>ATOM
      1 CA         30.8030   -0.0868    0.4251 C.3       0 UNK        -0.2020 
      2 C          30.0199   -0.4196   -0.8356 C.2       0 UNK         0.4855 
      3 O          30.2681    0.1736   -1.8826 O.2       0 UNK        -0.5197 
      4 N          29.0722   -1.3614   -0.7407 N.am      1 UNK        -0.4892 
      5 CA         28.2474   -1.8470   -1.8569 C.3       1 UNK         0.0835 
      6 C6         27.5050   -3.1557   -1.4874 C.3       12 UNK        -0.0855 
      7 S7         28.6307   -4.5016   -0.9898 S.3       12 UNK        -0.2931 
      8 C8         28.5107   -5.6421   -2.4141 C.3       12 UNK         0.0378 
      9 C9         29.1595   -5.1447   -3.7076 C.ar      12 UNK        -0.0802 
     10 C10        30.2549   -4.2712   -3.7013 C.ar      12 UNK        -0.0944 
     11 C11        30.8548   -3.8655   -4.8964 C.ar      12 UNK        -0.0787 
     12 C12        30.3733   -4.3617   -6.1093 C.ar      12 UNK        -0.0862 
     13 C13        29.2825   -5.2370   -6.1361 C.ar      12 UNK        -0.0733 
     14 C14        28.6803   -5.6212   -4.9336 C.ar      12 UNK        -0.0832 
     15 C15        28.7769   -5.7920   -7.4629 C.3       12 UNK         0.0240 
     16 S16        27.2350   -4.9958   -8.0232 S.3       12 UNK        -0.2522 
     17 C17        27.7770   -3.2685   -8.2772 C.3       12 UNK        -0.0967 
     18 CA         26.7688   -2.1957   -7.7863 C.3       5 UNK         0.0660 
     19 N          26.1169   -2.5710   -6.5301 N.am      5 UNK        -0.4015 
     20 C          24.9731   -2.0544   -6.0660 C.2       4 UNK         0.4946 
     21 O          24.4669   -1.0169   -6.4965 O.2       4 UNK        -0.5353 
     22 CA         24.2298   -2.8643   -4.9916 C.3       4 UNK         0.0277 
     23 CB         24.9013   -4.2042   -4.6149 C.3       4 UNK        -0.1981 
     24 N          24.0433   -2.0494   -3.7945 N.am      4 UNK        -0.4209 
     25 C          22.8997   -1.9615   -3.0992 C.2       3 UNK         0.4942 
     26 O          21.8630   -2.5427   -3.4249 O.2       3 UNK        -0.5208 
     27 CA         22.8890   -1.1215   -1.8051 C.3       3 UNK         0.0250 
     28 CB         22.5828   -2.0107   -0.5868 C.3       3 UNK        -0.1990 
     29 N          24.1440   -0.4125   -1.5562 N.am      3 UNK        -0.4232 
     30 C          24.4961    0.7531   -2.1130 C.2       2 UNK         0.4993 
     31 O          23.7638    1.4116   -2.8514 O.2       2 UNK        -0.5286 
     32 CA         25.9195    1.2551   -1.8115 C.3       2 UNK         0.0209 
     33 CB         25.9038    2.2431   -0.6340 C.3       2 UNK        -0.1931 
     34 N          26.8864    0.1849   -1.5290 N.am      2 UNK        -0.4546 
     35 C          27.2308   -0.8054   -2.3678 C.2       1 UNK         0.5154 
     36 O          26.7475   -0.9414   -3.4935 O.2       1 UNK        -0.5181 
     37 C          27.4582   -0.8178   -7.7785 C.2       5 UNK         0.5014 
     38 O          27.8302   -0.3574   -8.8582 O.2       5 UNK        -0.5248 
     39 N          27.6582   -0.1898   -6.6087 N.am      6 UNK        -0.4434 
     40 CA         28.4632    1.0313   -6.4253 C.3       6 UNK         0.0363 
     41 CB         28.5440    1.3646   -4.9303 C.3       6 UNK        -0.1936 
     42 C          28.0186    2.2739   -7.2256 C.2       6 UNK         0.5081 
     43 O          28.7770    3.2402   -7.3053 O.2       6 UNK        -0.5248 
     44 N          26.8197    2.2361   -7.8207 N.am      7 UNK        -0.4718 
     45 CA         26.3483    3.2182   -8.7986 C.3       7 UNK         0.0273 
     46 CB         24.8381    3.0237   -9.0103 C.3       7 UNK        -0.1935 
     47 C          27.0940    3.1484  -10.1486 C.2       7 UNK         0.5018 
     48 O          27.0877    4.1425  -10.8763 O.2       7 UNK        -0.5186 
     49 N          27.7000    1.9949  -10.4686 N.am      8 UNK        -0.4240 
     50 CA         28.4226    1.7419  -11.7189 C.3       8 UNK         0.0235 
     51 CB         27.5787    0.8147  -12.6101 C.3       8 UNK        -0.2000 
     52 C          29.8203    1.1415  -11.4925 C.2       8 UNK         0.4941 
     53 O          30.7253    1.4367  -12.2752 O.2       8 UNK        -0.5273 
     54 N          29.9818    0.3024  -10.4598 N.am      9 UNK        -0.4262 
     55 CA         31.2452   -0.3403  -10.0891 C.3       9 UNK         0.0264 
     56 CB         30.9536   -1.4937   -9.1134 C.3       9 UNK        -0.1955 
     57 C          32.2444    0.6459   -9.4636 C.2       9 UNK         0.5031 
     58 O          31.8513    1.7118   -8.9841 O.2       9 UNK        -0.5390 
     59 N          33.5212    0.2385   -9.4299 N.am      10 UNK        -0.4204 
     60 CA         34.6517    1.0063   -8.8907 C.3       10 UNK         0.0237 
     61 CB         35.9524    0.2201   -9.1246 C.3       10 UNK        -0.1985 
     62 C          34.5234    1.4006   -7.4063 C.2       10 UNK         0.4970 
     63 O          35.1314    2.3916   -6.9998 O.2       10 UNK        -0.4914 
     64 N          33.7345    0.6416   -6.6342 N.am      11 UNK        -0.4285 
     65 CA         33.3381    0.9834   -5.2610 C.3       11 UNK         0.1007 
     66 C          32.3106    2.1504   -5.1474 C.2       11 UNK         0.5703 
     67 N          31.7038    2.6186   -6.2321 N.am      11 UNK        -0.7361 
     68 O          32.0830    2.6610   -4.0537 O.2       11 UNK        -0.4986 
     69 C69        32.9094   -0.2715   -4.4557 C.3       12 UNK        -0.0947 
     70 S70        31.4975   -1.1915   -5.1640 S.3       12 UNK        -0.2240 
     71 C71        32.0336   -2.9051   -4.8712 C.3       12 UNK         0.0194 
     72 H72        30.6724    0.9643    0.6810 H         1 UNK         0.0906 
     73 H73        30.4820   -0.6866    1.2766 H         1 UNK         0.0906 
     74 H74        31.8653   -0.2684    0.2637 H         1 UNK         0.0906 
     75 H75        28.9318   -1.8379    0.1395 H         1 UNK         0.3140 
     76 H76        28.9143   -2.0502   -2.6972 H         1 UNK         0.1085 
     77 H77        26.8941   -3.4998   -2.3211 H         1 UNK         0.0836 
     78 H78        26.8102   -2.9816   -0.6634 H         1 UNK         0.0836 
     79 H79        28.9902   -6.5818   -2.1373 H         1 UNK         0.0731 
     80 H80        27.4583   -5.8754   -2.5843 H         1 UNK         0.0731 
     81 H81        30.6510   -3.9035   -2.7652 H         1 UNK         0.1312 
     82 H82        30.8492   -4.0613   -7.0329 H         1 UNK         0.1406 
     83 H83        27.8454   -6.3091   -4.9553 H         1 UNK         0.1631 
     84 H84        28.6004   -6.8638   -7.3612 H         1 UNK         0.0717 
     85 H85        29.5355   -5.6839   -8.2397 H         1 UNK         0.0717 
     86 H86        28.7392   -3.1238   -7.7893 H         1 UNK         0.0934 
     87 H87        27.9691   -3.1345   -9.3436 H         1 UNK         0.0934 
     88 H88        25.9770   -2.1324   -8.5361 H         1 UNK         0.0739 
     89 H89        26.4620   -3.4221   -6.1108 H         1 UNK         0.3093 
     90 H90        23.2580   -3.0975   -5.4318 H         1 UNK         0.0818 
     91 H91        24.3356   -4.7219   -3.8400 H         1 UNK         0.0819 
     92 H92        24.9473   -4.8766   -5.4729 H         1 UNK         0.0819 
     93 H93        25.9167   -4.0678   -4.2460 H         1 UNK         0.0819 
     94 H94        24.8470   -1.4928   -3.5192 H         1 UNK         0.3041 
     95 H95        22.0841   -0.3897   -1.9028 H         1 UNK         0.0784 
     96 H96        21.6247   -2.5194   -0.7028 H         1 UNK         0.0793 
     97 H97        23.3440   -2.7791   -0.4457 H         1 UNK         0.0793 
     98 H98        22.5236   -1.4227    0.3294 H         1 UNK         0.0793 
     99 H99        24.8105   -0.8689   -0.9511 H         1 UNK         0.3024 
    100 H100       26.2604    1.7911   -2.6976 H         1 UNK         0.1171 
    101 H101       25.5938    1.7617    0.2943 H         1 UNK         0.0786 
    102 H102       25.2108    3.0645   -0.8225 H         1 UNK         0.0786 
    103 H103       26.8879    2.6840   -0.4728 H         1 UNK         0.0786 
    104 H104       27.3480    0.2147   -0.6312 H         1 UNK         0.2977 
    105 H105       27.2966   -0.6184   -5.7649 H         1 UNK         0.3127 
    106 H106       29.4727    0.7966   -6.7687 H         1 UNK         0.0770 
    107 H107       27.5547    1.5493   -4.5172 H         1 UNK         0.0814 
    108 H108       29.1447    2.2571   -4.7517 H         1 UNK         0.0814 
    109 H109       29.0082    0.5546   -4.3682 H         1 UNK         0.0814 
    110 H110       26.2542    1.4089   -7.6911 H         1 UNK         0.2983 
    111 H111       26.5127    4.2165   -8.3869 H         1 UNK         0.0947 
    112 H112       24.4445    3.7595   -9.7130 H         1 UNK         0.0806 
    113 H113       24.2874    3.1427   -8.0770 H         1 UNK         0.0806 
    114 H114       24.6106    2.0353   -9.4118 H         1 UNK         0.0806 
    115 H115       27.6614    1.2274   -9.8024 H         1 UNK         0.3000 
    116 H116       28.5751    2.6804  -12.2561 H         1 UNK         0.0850 
    117 H117       28.0905    0.6015  -13.5496 H         1 UNK         0.0810 
    118 H118       26.6207    1.2711  -12.8594 H         1 UNK         0.0810 
    119 H119       27.3783   -0.1398  -12.1213 H         1 UNK         0.0810 
    120 H120       29.1853    0.0945   -9.8609 H         1 UNK         0.3040 
    121 H121       31.6935   -0.7536  -10.9952 H         1 UNK         0.0766 
    122 H122       31.8641   -2.0293   -8.8422 H         1 UNK         0.0812 
    123 H123       30.2780   -2.2217   -9.5609 H         1 UNK         0.0812 
    124 H124       30.5014   -1.1346   -8.1882 H         1 UNK         0.0812 
    125 H125       33.7478   -0.6586   -9.8356 H         1 UNK         0.3205 
    126 H126       34.7083    1.9360   -9.4607 H         1 UNK         0.0754 
    127 H127       36.8173    0.7776   -8.7616 H         1 UNK         0.0769 
    128 H128       36.1172    0.0290  -10.1853 H         1 UNK         0.0769 
    129 H129       35.9430   -0.7396   -8.6062 H         1 UNK         0.0769 
    130 H130       33.2611   -0.1480   -7.0450 H         1 UNK         0.2981 
    131 H131       34.2350    1.3611   -4.7661 H         1 UNK         0.0541 
    132 H132       31.8750    2.2224   -7.1519 H         1 UNK         0.3459 
    133 H133       31.0300    3.3622   -6.1419 H         1 UNK         0.3459 
    134 H134       32.6580   -0.0013   -3.4284 H         1 UNK         0.0612 
    135 H135       33.7652   -0.9435   -4.3782 H         1 UNK         0.0612 
    136 H136       32.5384   -2.9685   -3.9058 H         1 UNK         0.0624 
    137 H137       32.7695   -3.1874   -5.6253 H         1 UNK         0.0624 
@<TRIPOS>BOND
     1    1    2 1    
     2    1   72 1    
     3    1   73 1    
     4    1   74 1    
     5    2    3 2    
     6    2    4 am   BACKBONE|DICT|INTERRES
     7    4    5 1    
     8    4   75 1    
     9    5    6 1    
    10    5   35 1    
    11    5   76 1    
    12    6    7 1    
    13    6   77 1    
    14    6   78 1    
    15    7    8 1    
    16    8    9 1    
    17    8   79 1    
    18    8   80 1    
    19    9   10 ar   
    20    9   14 ar   
    21   10   11 ar   
    22   10   81 1    
    23   11   12 ar   
    24   11   71 1    
    25   12   13 ar   
    26   12   82 1    
    27   13   14 ar   
    28   13   15 1    
    29   14   83 1    
    30   15   16 1    
    31   15   84 1    
    32   15   85 1    
    33   16   17 1    
    34   17   18 1    
    35   17   86 1    
    36   17   87 1    
    37   18   19 1    
    38   18   37 1    
    39   18   88 1    
    40   19   20 am   BACKBONE|DICT|INTERRES
    41   19   89 1    
    42   20   21 2    
    43   20   22 1    
    44   22   23 1    
    45   22   24 1    
    46   22   90 1    
    47   23   91 1    
    48   23   92 1    
    49   23   93 1    
    50   24   25 am   BACKBONE|DICT|INTERRES
    51   24   94 1    
    52   25   26 2    
    53   25   27 1    
    54   27   28 1    
    55   27   29 1    
    56   27   95 1    
    57   28   96 1    
    58   28   97 1    
    59   28   98 1    
    60   29   30 am   BACKBONE|DICT|INTERRES
    61   29   99 1    
    62   30   31 2    
    63   30   32 1    
    64   32   33 1    
    65   32   34 1    
    66   32  100 1    
    67   33  101 1    
    68   33  102 1    
    69   33  103 1    
    70   34   35 am   BACKBONE|DICT|INTERRES
    71   34  104 1    
    72   35   36 2    
    73   37   38 2    
    74   37   39 am   BACKBONE|DICT|INTERRES
    75   39   40 1    
    76   39  105 1    
    77   40   41 1    
    78   40   42 1    
    79   40  106 1    
    80   41  107 1    
    81   41  108 1    
    82   41  109 1    
    83   42   43 2    
    84   42   44 am   BACKBONE|DICT|INTERRES
    85   44   45 1    
    86   44  110 1    
    87   45   46 1    
    88   45   47 1    
    89   45  111 1    
    90   46  112 1    
    91   46  113 1    
    92   46  114 1    
    93   47   48 2    
    94   47   49 am   BACKBONE|DICT|INTERRES
    95   49   50 1    
    96   49  115 1    
    97   50   51 1    
    98   50   52 1    
    99   50  116 1    
   100   51  117 1    
   101   51  118 1    
   102   51  119 1    
   103   52   53 2    
   104   52   54 am   BACKBONE|DICT|INTERRES
   105   54   55 1    
   106   54  120 1    
   107   55   56 1    
   108   55   57 1    
   109   55  121 1    
   110   56  122 1    
   111   56  123 1    
   112   56  124 1    
   113   57   58 2    
   114   57   59 am   BACKBONE|DICT|INTERRES
   115   59   60 1    
   116   59  125 1    
   117   60   61 1    
   118   60   62 1    
   119   60  126 1    
   120   61  127 1    
   121   61  128 1    
   122   61  129 1    
   123   62   63 2    
   124   62   64 am   BACKBONE|DICT|INTERRES
   125   64   65 1    
   126   64  130 1    
   127   65   66 1    
   128   65   69 1    
   129   65  131 1    
   130   66   67 am   BACKBONE|DICT|INTERRES
   131   66   68 2    
   132   67  132 1    
   133   67  133 1    
   134   69   70 1    
   135   69  134 1    
   136   69  135 1    
   137   70   71 1    
   138   71  136 1    
   139   71  137 1    
@<TRIPOS>SUBSTRUCTURE
     1 UNK         1 GROUP             0       ****    0 ROOT    
