@<TRIPOS>MOLECULE
3R137
137   139    1
SMALL
USER_CHARGES


@<TRIPOS>ATOM
      1 CA         24.9292   -6.0556   -3.8576 C.3       0 UNK        -0.2020 
      2 C          25.5337   -4.7020   -3.5212 C.2       0 UNK         0.4855 
      3 O          25.9891   -4.0007   -4.4229 O.2       0 UNK        -0.5197 
      4 N          25.5223   -4.3238   -2.2355 N.am      1 UNK        -0.4892 
      5 CA         26.1016   -3.0931   -1.6712 C.3       1 UNK         0.0835 
      6 C6         27.6509   -3.0800   -1.6698 C.3       12 UNK        -0.0855 
      7 S7         28.4370   -4.5412   -0.9065 S.3       12 UNK        -0.2931 
      8 C8         29.8552   -4.8364   -2.0330 C.3       12 UNK         0.0378 
      9 C9         30.8093   -3.6527   -2.2412 C.ar      12 UNK        -0.0802 
     10 C10        31.6697   -3.6609   -3.3458 C.ar      12 UNK        -0.0944 
     11 C11        32.5313   -2.5861   -3.5945 C.ar      12 UNK        -0.0787 
     12 C12        32.5148   -1.4794   -2.7396 C.ar      12 UNK        -0.0862 
     13 C13        31.6706   -1.4591   -1.6266 C.ar      12 UNK        -0.0733 
     14 C14        30.8522   -2.5607   -1.3658 C.ar      12 UNK        -0.0832 
     15 C15        31.6284   -0.2522   -0.6971 C.3       12 UNK         0.0240 
     16 S16        30.8171    1.2067   -1.4406 S.3       12 UNK        -0.2522 
     17 C17        29.2401    0.5544   -2.1013 C.3       12 UNK        -0.0967 
     18 CA         29.1218    0.8081   -3.6300 C.3       5 UNK         0.0660 
     19 N          28.5670   -0.3283   -4.3699 N.am      5 UNK        -0.4015 
     20 C          29.0445   -0.7206   -5.5609 C.2       4 UNK         0.4946 
     21 O          29.9482   -0.1364   -6.1552 O.2       4 UNK        -0.5353 
     22 CA         28.4137   -1.9504   -6.2278 C.3       4 UNK         0.0277 
     23 CB         29.0349   -3.2607   -5.7243 C.3       4 UNK        -0.1981 
     24 N          26.9615   -2.0123   -6.1032 N.am      4 UNK        -0.4209 
     25 C          26.1281   -1.2179   -6.7835 C.2       3 UNK         0.4942 
     26 O          26.4962   -0.2551   -7.4546 O.2       3 UNK        -0.5208 
     27 CA         24.6385   -1.5772   -6.7201 C.3       3 UNK         0.0250 
     28 CB         24.3584   -2.9301   -7.3972 C.3       3 UNK        -0.1990 
     29 N          24.1654   -1.6001   -5.3400 N.am      3 UNK        -0.4232 
     30 C          23.8749   -0.4967   -4.6407 C.2       2 UNK         0.4993 
     31 O          23.9287    0.6394   -5.1088 O.2       2 UNK        -0.5286 
     32 CA         23.4828   -0.6874   -3.1655 C.3       2 UNK         0.0209 
     33 CB         21.9680   -0.9107   -3.0340 C.3       2 UNK        -0.1931 
     34 N          24.2002   -1.7870   -2.5141 N.am      2 UNK        -0.4546 
     35 C          25.5256   -1.8082   -2.3147 C.2       1 UNK         0.5154 
     36 O          26.2745   -0.8842   -2.6522 O.2       1 UNK        -0.5181 
     37 C          28.3417    2.0933   -3.9453 C.2       5 UNK         0.5014 
     38 O          28.9426    3.0553   -4.4250 O.2       5 UNK        -0.5248 
     39 N          27.0297    2.1056   -3.6559 N.am      6 UNK        -0.4434 
     40 CA         26.2136    3.3263   -3.7094 C.3       6 UNK         0.0363 
     41 CB         24.9056    3.1497   -2.9223 C.3       6 UNK        -0.1936 
     42 C          25.9609    3.8295   -5.1404 C.2       6 UNK         0.5081 
     43 O          26.2017    5.0063   -5.4119 O.2       6 UNK        -0.5248 
     44 N          25.5186    2.9383   -6.0390 N.am      7 UNK        -0.4718 
     45 CA         25.3573    3.2368   -7.4694 C.3       7 UNK         0.0273 
     46 CB         24.2633    2.3379   -8.0677 C.3       7 UNK        -0.1935 
     47 C          26.6746    3.1282   -8.2662 C.2       7 UNK         0.5018 
     48 O          26.6926    3.5051   -9.4389 O.2       7 UNK        -0.5186 
     49 N          27.7445    2.6438   -7.6172 N.am      8 UNK        -0.4240 
     50 CA         29.1234    2.5286   -8.1052 C.3       8 UNK         0.0235 
     51 CB         29.7254    3.9270   -8.3650 C.3       8 UNK        -0.2000 
     52 C          29.2976    1.5704   -9.3019 C.2       8 UNK         0.4941 
     53 O          30.1591    1.8149  -10.1504 O.2       8 UNK        -0.5273 
     54 N          28.4938    0.4982   -9.3687 N.am      9 UNK        -0.4262 
     55 CA         28.5629   -0.5116  -10.4282 C.3       9 UNK         0.0264 
     56 CB         27.3525   -1.4554  -10.3336 C.3       9 UNK        -0.1955 
     57 C          29.8789   -1.3071  -10.3715 C.2       9 UNK         0.5031 
     58 O          30.1922   -1.8956   -9.3352 O.2       9 UNK        -0.5390 
     59 N          30.6102   -1.3202  -11.4935 N.am      10 UNK        -0.4204 
     60 CA         31.8954   -1.9888  -11.7354 C.3       10 UNK         0.0237 
     61 CB         31.7839   -3.5210  -11.5882 C.3       10 UNK        -0.1985 
     62 C          33.0664   -1.4212  -10.9125 C.2       10 UNK         0.4970 
     63 O          34.0145   -0.9069  -11.5071 O.2       10 UNK        -0.4914 
     64 N          32.9962   -1.5338   -9.5810 N.am      11 UNK        -0.4285 
     65 CA         34.0402   -1.0856   -8.6454 C.3       11 UNK         0.1007 
     66 C          33.9703    0.4202   -8.2538 C.2       11 UNK         0.5703 
     67 N          32.9929    1.1908   -8.7161 N.am      11 UNK        -0.7361 
     68 O          34.8424    0.9086   -7.5386 O.2       11 UNK        -0.4986 
     69 C69        34.1722   -2.0372   -7.4249 C.3       12 UNK        -0.0947 
     70 S70        32.7274   -2.0516   -6.3124 S.3       12 UNK        -0.2240 
     71 C71        33.4990   -2.6284   -4.7695 C.3       12 UNK         0.0194 
     72 H72        24.1080   -5.9342   -4.5635 H         1 UNK         0.0906 
     73 H73        25.6821   -6.6949   -4.3178 H         1 UNK         0.0906 
     74 H74        24.5462   -6.5643   -2.9732 H         1 UNK         0.0906 
     75 H75        25.1255   -4.9537   -1.5515 H         1 UNK         0.3140 
     76 H76        25.7810   -3.0622   -0.6285 H         1 UNK         0.1085 
     77 H77        27.9928   -2.2124   -1.1065 H         1 UNK         0.0836 
     78 H78        28.0269   -2.9573   -2.6838 H         1 UNK         0.0836 
     79 H79        30.4306   -5.6783   -1.6461 H         1 UNK         0.0731 
     80 H80        29.4569   -5.1548   -2.9976 H         1 UNK         0.0731 
     81 H81        31.6690   -4.5070   -4.0197 H         1 UNK         0.1312 
     82 H82        33.1598   -0.6341   -2.9375 H         1 UNK         0.1406 
     83 H83        30.2252   -2.5442   -0.4865 H         1 UNK         0.1631 
     84 H84        32.6464    0.0189   -0.4141 H         1 UNK         0.0717 
     85 H85        31.1130   -0.4995    0.2323 H         1 UNK         0.0717 
     86 H86        29.1881   -0.5108   -1.8994 H         1 UNK         0.0934 
     87 H87        28.4114    0.9847   -1.5354 H         1 UNK         0.0934 
     88 H88        30.1362    0.9755   -4.0001 H         1 UNK         0.0739 
     89 H89        27.7707   -0.7997   -3.9533 H         1 UNK         0.3093 
     90 H90        28.6421   -1.8799   -7.2919 H         1 UNK         0.0818 
     91 H91        28.8424   -3.4233   -4.6672 H         1 UNK         0.0819 
     92 H92        28.6440   -4.1188   -6.2706 H         1 UNK         0.0819 
     93 H93        30.1151   -3.2556   -5.8636 H         1 UNK         0.0819 
     94 H94        26.5784   -2.7688   -5.5349 H         1 UNK         0.3041 
     95 H95        24.0823   -0.8163   -7.2703 H         1 UNK         0.0784 
     96 H96        24.7134   -2.9280   -8.4288 H         1 UNK         0.0793 
     97 H97        24.8501   -3.7581   -6.8857 H         1 UNK         0.0793 
     98 H98        23.2897   -3.1431   -7.4240 H         1 UNK         0.0793 
     99 H99        24.1698   -2.4923   -4.8659 H         1 UNK         0.3024 
    100 H100       23.7392    0.2334   -2.6379 H         1 UNK         0.1171 
    101 H101       21.4127   -0.0923   -3.4949 H         1 UNK         0.0786 
    102 H102       21.6628   -0.9579   -1.9885 H         1 UNK         0.0786 
    103 H103       21.6505   -1.8342   -3.5199 H         1 UNK         0.0786 
    104 H104       23.6566   -2.5882   -2.2259 H         1 UNK         0.2977 
    105 H105       26.5965    1.2650   -3.2916 H         1 UNK         0.3127 
    106 H106       26.7804    4.1074   -3.1968 H         1 UNK         0.0770 
    107 H107       24.2280    2.4463   -3.3991 H         1 UNK         0.0814 
    108 H108       24.3739    4.0990   -2.8469 H         1 UNK         0.0814 
    109 H109       25.0936    2.8037   -1.9059 H         1 UNK         0.0814 
    110 H110       25.2528    2.0065   -5.7304 H         1 UNK         0.2983 
    111 H111       25.0163    4.2695   -7.5715 H         1 UNK         0.0947 
    112 H112       24.0449    2.6241   -9.0973 H         1 UNK         0.0806 
    113 H113       23.3330    2.4133   -7.5045 H         1 UNK         0.0806 
    114 H114       24.5621    1.2926   -8.0821 H         1 UNK         0.0806 
    115 H115       27.5953    2.3430   -6.6646 H         1 UNK         0.3000 
    116 H116       29.6940    2.0930   -7.2862 H         1 UNK         0.0850 
    117 H117       29.6121    4.5738   -7.4947 H         1 UNK         0.0810 
    118 H118       29.2535    4.4195   -9.2157 H         1 UNK         0.0810 
    119 H119       30.7926    3.8604   -8.5793 H         1 UNK         0.0810 
    120 H120       27.8181    0.3349   -8.6241 H         1 UNK         0.3040 
    121 H121       28.5018    0.0142  -11.3834 H         1 UNK         0.0766 
    122 H122       26.4131   -0.9023  -10.3463 H         1 UNK         0.0812 
    123 H123       27.3774   -2.0536   -9.4224 H         1 UNK         0.0812 
    124 H124       27.3344   -2.1495  -11.1746 H         1 UNK         0.0812 
    125 H125       30.2718   -0.7683  -12.2703 H         1 UNK         0.3205 
    126 H126       32.1309   -1.7890  -12.7822 H         1 UNK         0.0754 
    127 H127       32.7255   -4.0053  -11.8504 H         1 UNK         0.0769 
    128 H128       31.0171   -3.9260  -12.2488 H         1 UNK         0.0769 
    129 H129       31.5392   -3.8235  -10.5696 H         1 UNK         0.0769 
    130 H130       32.1313   -1.8798   -9.1731 H         1 UNK         0.2981 
    131 H131       34.9920   -1.1724   -9.1728 H         1 UNK         0.0541 
    132 H132       32.2665    0.8138   -9.3053 H         1 UNK         0.3459 
    133 H133       32.9768    2.1644   -8.4608 H         1 UNK         0.3459 
    134 H134       35.0603   -1.7727   -6.8484 H         1 UNK         0.0612 
    135 H135       34.3400   -3.0583   -7.7707 H         1 UNK         0.0612 
    136 H136       34.3728   -2.0123   -4.5501 H         1 UNK         0.0624 
    137 H137       33.8669   -3.6460   -4.9127 H         1 UNK         0.0624 
@<TRIPOS>BOND
     1    1    2 1    
     2    1   72 1    
     3    1   73 1    
     4    1   74 1    
     5    2    3 2    
     6    2    4 am   BACKBONE|DICT|INTERRES
     7    4    5 1    
     8    4   75 1    
     9    5    6 1    
    10    5   35 1    
    11    5   76 1    
    12    6    7 1    
    13    6   77 1    
    14    6   78 1    
    15    7    8 1    
    16    8    9 1    
    17    8   79 1    
    18    8   80 1    
    19    9   10 ar   
    20    9   14 ar   
    21   10   11 ar   
    22   10   81 1    
    23   11   12 ar   
    24   11   71 1    
    25   12   13 ar   
    26   12   82 1    
    27   13   14 ar   
    28   13   15 1    
    29   14   83 1    
    30   15   16 1    
    31   15   84 1    
    32   15   85 1    
    33   16   17 1    
    34   17   18 1    
    35   17   86 1    
    36   17   87 1    
    37   18   19 1    
    38   18   37 1    
    39   18   88 1    
    40   19   20 am   BACKBONE|DICT|INTERRES
    41   19   89 1    
    42   20   21 2    
    43   20   22 1    
    44   22   23 1    
    45   22   24 1    
    46   22   90 1    
    47   23   91 1    
    48   23   92 1    
    49   23   93 1    
    50   24   25 am   BACKBONE|DICT|INTERRES
    51   24   94 1    
    52   25   26 2    
    53   25   27 1    
    54   27   28 1    
    55   27   29 1    
    56   27   95 1    
    57   28   96 1    
    58   28   97 1    
    59   28   98 1    
    60   29   30 am   BACKBONE|DICT|INTERRES
    61   29   99 1    
    62   30   31 2    
    63   30   32 1    
    64   32   33 1    
    65   32   34 1    
    66   32  100 1    
    67   33  101 1    
    68   33  102 1    
    69   33  103 1    
    70   34   35 am   BACKBONE|DICT|INTERRES
    71   34  104 1    
    72   35   36 2    
    73   37   38 2    
    74   37   39 am   BACKBONE|DICT|INTERRES
    75   39   40 1    
    76   39  105 1    
    77   40   41 1    
    78   40   42 1    
    79   40  106 1    
    80   41  107 1    
    81   41  108 1    
    82   41  109 1    
    83   42   43 2    
    84   42   44 am   BACKBONE|DICT|INTERRES
    85   44   45 1    
    86   44  110 1    
    87   45   46 1    
    88   45   47 1    
    89   45  111 1    
    90   46  112 1    
    91   46  113 1    
    92   46  114 1    
    93   47   48 2    
    94   47   49 am   BACKBONE|DICT|INTERRES
    95   49   50 1    
    96   49  115 1    
    97   50   51 1    
    98   50   52 1    
    99   50  116 1    
   100   51  117 1    
   101   51  118 1    
   102   51  119 1    
   103   52   53 2    
   104   52   54 am   BACKBONE|DICT|INTERRES
   105   54   55 1    
   106   54  120 1    
   107   55   56 1    
   108   55   57 1    
   109   55  121 1    
   110   56  122 1    
   111   56  123 1    
   112   56  124 1    
   113   57   58 2    
   114   57   59 am   BACKBONE|DICT|INTERRES
   115   59   60 1    
   116   59  125 1    
   117   60   61 1    
   118   60   62 1    
   119   60  126 1    
   120   61  127 1    
   121   61  128 1    
   122   61  129 1    
   123   62   63 2    
   124   62   64 am   BACKBONE|DICT|INTERRES
   125   64   65 1    
   126   64  130 1    
   127   65   66 1    
   128   65   69 1    
   129   65  131 1    
   130   66   67 am   BACKBONE|DICT|INTERRES
   131   66   68 2    
   132   67  132 1    
   133   67  133 1    
   134   69   70 1    
   135   69  134 1    
   136   69  135 1    
   137   70   71 1    
   138   71  136 1    
   139   71  137 1    
@<TRIPOS>SUBSTRUCTURE
     1 UNK         1 GROUP             0       ****    0 ROOT    
