@<TRIPOS>MOLECULE
3R137
137   139    1
SMALL
USER_CHARGES


@<TRIPOS>ATOM
      1 CA         25.2838   -5.4185   -2.7603 C.3       0 UNK        -0.2020 
      2 C          25.8992   -4.7069   -1.5658 C.2       0 UNK         0.4855 
      3 O          25.2379   -4.5486   -0.5394 O.2       0 UNK        -0.5197 
      4 N          27.1625   -4.2778   -1.6903 N.am      1 UNK        -0.4892 
      5 CA         27.9193   -3.5991   -0.6257 C.3       1 UNK         0.0835 
      6 C6         29.4513   -3.7320   -0.8154 C.3       12 UNK        -0.0855 
      7 S7         29.9853   -5.4771   -0.7150 S.3       12 UNK        -0.2931 
      8 C8         31.5737   -5.4555   -1.6190 C.3       12 UNK         0.0378 
      9 C9         31.4610   -5.0111   -3.0756 C.ar      12 UNK        -0.0802 
     10 C10        32.4783   -4.2340   -3.6393 C.ar      12 UNK        -0.0944 
     11 C11        32.3847   -3.7871   -4.9608 C.ar      12 UNK        -0.0787 
     12 C12        31.2590   -4.1146   -5.7211 C.ar      12 UNK        -0.0862 
     13 C13        30.2331   -4.8868   -5.1687 C.ar      12 UNK        -0.0733 
     14 C14        30.3546   -5.3577   -3.8595 C.ar      12 UNK        -0.0832 
     15 C15        28.9683   -5.1772   -5.9625 C.3       12 UNK         0.0240 
     16 S16        27.5443   -4.2635   -5.2837 S.3       12 UNK        -0.2522 
     17 C17        28.0234   -2.5344   -5.6064 C.3       12 UNK        -0.0967 
     18 CA         27.0555   -1.8545   -6.5995 C.3       5 UNK         0.0660 
     19 N          25.7276   -1.6387   -6.0296 N.am      5 UNK        -0.4015 
     20 C          24.5845   -1.6906   -6.7251 C.2       4 UNK         0.4946 
     21 O          24.5104   -2.0305   -7.9066 O.2       4 UNK        -0.5353 
     22 CA         23.2986   -1.2750   -5.9853 C.3       4 UNK         0.0277 
     23 CB         22.6218   -2.5043   -5.3571 C.3       4 UNK        -0.1981 
     24 N          23.5119   -0.2585   -4.9499 N.am      4 UNK        -0.4209 
     25 C          23.9986    0.9716   -5.1697 C.2       3 UNK         0.4942 
     26 O          24.2964    1.4043   -6.2821 O.2       3 UNK        -0.5208 
     27 CA         24.2459    1.8539   -3.9352 C.3       3 UNK         0.0250 
     28 CB         22.9725    2.6380   -3.5800 C.3       3 UNK        -0.1990 
     29 N          24.7303    1.1473   -2.7418 N.am      3 UNK        -0.4232 
     30 C          25.7527    0.2811   -2.6650 C.2       2 UNK         0.4993 
     31 O          26.3932   -0.1163   -3.6434 O.2       2 UNK        -0.5286 
     32 CA         26.1108   -0.2344   -1.2614 C.3       2 UNK         0.0209 
     33 CB         24.9022   -0.2777   -0.2961 C.3       2 UNK        -0.1931 
     34 N          26.7182   -1.5614   -1.3584 N.am      2 UNK        -0.4546 
     35 C          27.4967   -2.1257   -0.4252 C.2       1 UNK         0.5154 
     36 O          27.8636   -1.5345    0.5921 O.2       1 UNK        -0.5181 
     37 C          27.6331   -0.5181   -7.0864 C.2       5 UNK         0.5014 
     38 O          28.1125   -0.4569   -8.2179 O.2       5 UNK        -0.5248 
     39 N          27.5682    0.5275   -6.2459 N.am      6 UNK        -0.4434 
     40 CA         28.1704    1.8415   -6.5068 C.3       6 UNK         0.0363 
     41 CB         28.0058    2.7480   -5.2789 C.3       6 UNK        -0.1936 
     42 C          27.6520    2.5444   -7.7750 C.2       6 UNK         0.5081 
     43 O          28.4155    3.2664   -8.4150 O.2       6 UNK        -0.5248 
     44 N          26.3832    2.3064   -8.1359 N.am      7 UNK        -0.4718 
     45 CA         25.7793    2.7795   -9.3843 C.3       7 UNK         0.0273 
     46 CB         24.2535    2.6131   -9.3030 C.3       7 UNK        -0.1935 
     47 C          26.3266    2.0759  -10.6413 C.2       7 UNK         0.5018 
     48 O          26.2670    2.6634  -11.7224 O.2       7 UNK        -0.5186 
     49 N          26.8330    0.8436  -10.4920 N.am      8 UNK        -0.4240 
     50 CA         27.4332    0.0577  -11.5706 C.3       8 UNK         0.0235 
     51 CB         27.1233   -1.4347  -11.3620 C.3       8 UNK        -0.2000 
     52 C          28.9473    0.2980  -11.6543 C.2       8 UNK         0.4941 
     53 O          29.4634    0.4956  -12.7553 O.2       8 UNK        -0.5273 
     54 N          29.6292    0.2899  -10.5024 N.am      9 UNK        -0.4262 
     55 CA         31.0610    0.5379  -10.3749 C.3       9 UNK         0.0264 
     56 CB         31.8417   -0.7808  -10.5278 C.3       9 UNK        -0.1955 
     57 C          31.3150    1.1861   -9.0125 C.2       9 UNK         0.5031 
     58 O          31.1608    0.5212   -7.9864 O.2       9 UNK        -0.5390 
     59 N          31.7054    2.4663   -9.0162 N.am      10 UNK        -0.4204 
     60 CA         31.9896    3.2674   -7.8219 C.3       10 UNK         0.0237 
     61 CB         31.8749    4.7602   -8.1832 C.3       10 UNK        -0.1985 
     62 C          33.3526    2.9087   -7.1968 C.2       10 UNK         0.4970 
     63 O          34.2645    3.7374   -7.1792 O.2       10 UNK        -0.4914 
     64 N          33.4684    1.6675   -6.7145 N.am      11 UNK        -0.4285 
     65 CA         34.6601    1.1075   -6.0600 C.3       11 UNK         0.1007 
     66 C          34.9747    1.6712   -4.6419 C.2       11 UNK         0.5703 
     67 N          34.0789    2.4172   -4.0055 N.am      11 UNK        -0.7361 
     68 O          36.0612    1.4383   -4.1170 O.2       11 UNK        -0.4986 
     69 C69        34.6372   -0.4438   -6.0855 C.3       12 UNK        -0.0947 
     70 S70        33.1856   -1.1703   -5.2520 S.3       12 UNK        -0.2240 
     71 C71        33.4897   -2.9336   -5.5610 C.3       12 UNK         0.0194 
     72 H72        24.8435   -4.6957   -3.4464 H         1 UNK         0.0906 
     73 H73        26.0297   -6.0003   -3.3012 H         1 UNK         0.0906 
     74 H74        24.5001   -6.1028   -2.4358 H         1 UNK         0.0906 
     75 H75        27.6595   -4.4316   -2.5570 H         1 UNK         0.3140 
     76 H76        27.6715   -4.0945    0.3163 H         1 UNK         0.1085 
     77 H77        29.9898   -3.1798   -0.0424 H         1 UNK         0.0836 
     78 H78        29.7538   -3.2968   -1.7694 H         1 UNK         0.0836 
     79 H79        32.2652   -4.8082   -1.0770 H         1 UNK         0.0731 
     80 H80        32.0038   -6.4575   -1.5943 H         1 UNK         0.0731 
     81 H81        33.3416   -3.9638   -3.0463 H         1 UNK         0.1312 
     82 H82        31.1729   -3.7462   -6.7345 H         1 UNK         0.1406 
     83 H83        29.5616   -5.9612   -3.4399 H         1 UNK         0.1631 
     84 H84        28.7554   -6.2466   -5.9279 H         1 UNK         0.0717 
     85 H85        29.0954   -4.9205   -7.0154 H         1 UNK         0.0717 
     86 H86        28.0579   -1.9989   -4.6560 H         1 UNK         0.0934 
     87 H87        29.0411   -2.5073   -5.9977 H         1 UNK         0.0934 
     88 H88        26.9722   -2.5020   -7.4757 H         1 UNK         0.0739 
     89 H89        25.7068   -1.2921   -5.0769 H         1 UNK         0.3093 
     90 H90        22.6201   -0.8496   -6.7279 H         1 UNK         0.0818 
     91 H91        21.6603   -2.2458   -4.9132 H         1 UNK         0.0819 
     92 H92        22.4327   -3.2719   -6.1091 H         1 UNK         0.0819 
     93 H93        23.2414   -2.9550   -4.5810 H         1 UNK         0.0819 
     94 H94        23.2958   -0.5213   -3.9995 H         1 UNK         0.3041 
     95 H95        25.0123    2.5786   -4.2058 H         1 UNK         0.0784 
     96 H96        22.5992    3.1897   -4.4444 H         1 UNK         0.0793 
     97 H97        22.1713    1.9786   -3.2437 H         1 UNK         0.0793 
     98 H98        23.1607    3.3676   -2.7921 H         1 UNK         0.0793 
     99 H99        24.2668    1.3881   -1.8775 H         1 UNK         0.3024 
    100 H100       26.8554    0.4579   -0.8621 H         1 UNK         0.1171 
    101 H101       24.4998    0.7174   -0.1041 H         1 UNK         0.0786 
    102 H102       25.1823   -0.6853    0.6754 H         1 UNK         0.0786 
    103 H103       24.0952   -0.8975   -0.6893 H         1 UNK         0.0786 
    104 H104       26.5114   -2.0795   -2.2009 H         1 UNK         0.2977 
    105 H105       27.1534    0.3884   -5.3280 H         1 UNK         0.3127 
    106 H106       29.2377    1.6695   -6.6477 H         1 UNK         0.0770 
    107 H107       26.9683    3.0432   -5.1363 H         1 UNK         0.0814 
    108 H108       28.5864    3.6640   -5.3968 H         1 UNK         0.0814 
    109 H109       28.3508    2.2594   -4.3675 H         1 UNK         0.0814 
    110 H110       25.7871    1.7632   -7.5163 H         1 UNK         0.2983 
    111 H111       26.0016    3.8441   -9.4858 H         1 UNK         0.0947 
    112 H112       23.7700    2.9728  -10.2123 H         1 UNK         0.0806 
    113 H113       23.8374    3.1793   -8.4695 H         1 UNK         0.0806 
    114 H114       23.9695    1.5681   -9.1714 H         1 UNK         0.0806 
    115 H115       26.9167    0.4605   -9.5566 H         1 UNK         0.3000 
    116 H116       26.9941    0.3550  -12.5256 H         1 UNK         0.0850 
    117 H117       27.5333   -2.0335  -12.1762 H         1 UNK         0.0810 
    118 H118       26.0485   -1.6151  -11.3358 H         1 UNK         0.0810 
    119 H119       27.5472   -1.8167  -10.4330 H         1 UNK         0.0810 
    120 H120       29.1358    0.1040   -9.6282 H         1 UNK         0.3040 
    121 H121       31.3856    1.2275  -11.1573 H         1 UNK         0.0766 
    122 H122       31.6980   -1.2142  -11.5176 H         1 UNK         0.0812 
    123 H123       31.5291   -1.5211   -9.7900 H         1 UNK         0.0812 
    124 H124       32.9120   -0.6184  -10.3952 H         1 UNK         0.0812 
    125 H125       31.8244    2.9334   -9.9036 H         1 UNK         0.3205 
    126 H126       31.2253    3.0549   -7.0716 H         1 UNK         0.0754 
    127 H127       32.0547    5.3888   -7.3099 H         1 UNK         0.0769 
    128 H128       30.8769    5.0003   -8.5515 H         1 UNK         0.0769 
    129 H129       32.5954    5.0499   -8.9492 H         1 UNK         0.0769 
    130 H130       32.6758    1.0399   -6.8175 H         1 UNK         0.2981 
    131 H131       35.5120    1.4095   -6.6721 H         1 UNK         0.0541 
    132 H132       33.1833    2.6062   -4.4242 H         1 UNK         0.3459 
    133 H133       34.2985    2.7805   -3.0916 H         1 UNK         0.3459 
    134 H134       35.5446   -0.8519   -5.6364 H         1 UNK         0.0612 
    135 H135       34.6375   -0.7873   -7.1212 H         1 UNK         0.0612 
    136 H136       33.5580   -3.1067   -6.6362 H         1 UNK         0.0624 
    137 H137       34.4550   -3.2154   -5.1376 H         1 UNK         0.0624 
@<TRIPOS>BOND
     1    1    2 1    
     2    1   72 1    
     3    1   73 1    
     4    1   74 1    
     5    2    3 2    
     6    2    4 am   BACKBONE|DICT|INTERRES
     7    4    5 1    
     8    4   75 1    
     9    5    6 1    
    10    5   35 1    
    11    5   76 1    
    12    6    7 1    
    13    6   77 1    
    14    6   78 1    
    15    7    8 1    
    16    8    9 1    
    17    8   79 1    
    18    8   80 1    
    19    9   10 ar   
    20    9   14 ar   
    21   10   11 ar   
    22   10   81 1    
    23   11   12 ar   
    24   11   71 1    
    25   12   13 ar   
    26   12   82 1    
    27   13   14 ar   
    28   13   15 1    
    29   14   83 1    
    30   15   16 1    
    31   15   84 1    
    32   15   85 1    
    33   16   17 1    
    34   17   18 1    
    35   17   86 1    
    36   17   87 1    
    37   18   19 1    
    38   18   37 1    
    39   18   88 1    
    40   19   20 am   BACKBONE|DICT|INTERRES
    41   19   89 1    
    42   20   21 2    
    43   20   22 1    
    44   22   23 1    
    45   22   24 1    
    46   22   90 1    
    47   23   91 1    
    48   23   92 1    
    49   23   93 1    
    50   24   25 am   BACKBONE|DICT|INTERRES
    51   24   94 1    
    52   25   26 2    
    53   25   27 1    
    54   27   28 1    
    55   27   29 1    
    56   27   95 1    
    57   28   96 1    
    58   28   97 1    
    59   28   98 1    
    60   29   30 am   BACKBONE|DICT|INTERRES
    61   29   99 1    
    62   30   31 2    
    63   30   32 1    
    64   32   33 1    
    65   32   34 1    
    66   32  100 1    
    67   33  101 1    
    68   33  102 1    
    69   33  103 1    
    70   34   35 am   BACKBONE|DICT|INTERRES
    71   34  104 1    
    72   35   36 2    
    73   37   38 2    
    74   37   39 am   BACKBONE|DICT|INTERRES
    75   39   40 1    
    76   39  105 1    
    77   40   41 1    
    78   40   42 1    
    79   40  106 1    
    80   41  107 1    
    81   41  108 1    
    82   41  109 1    
    83   42   43 2    
    84   42   44 am   BACKBONE|DICT|INTERRES
    85   44   45 1    
    86   44  110 1    
    87   45   46 1    
    88   45   47 1    
    89   45  111 1    
    90   46  112 1    
    91   46  113 1    
    92   46  114 1    
    93   47   48 2    
    94   47   49 am   BACKBONE|DICT|INTERRES
    95   49   50 1    
    96   49  115 1    
    97   50   51 1    
    98   50   52 1    
    99   50  116 1    
   100   51  117 1    
   101   51  118 1    
   102   51  119 1    
   103   52   53 2    
   104   52   54 am   BACKBONE|DICT|INTERRES
   105   54   55 1    
   106   54  120 1    
   107   55   56 1    
   108   55   57 1    
   109   55  121 1    
   110   56  122 1    
   111   56  123 1    
   112   56  124 1    
   113   57   58 2    
   114   57   59 am   BACKBONE|DICT|INTERRES
   115   59   60 1    
   116   59  125 1    
   117   60   61 1    
   118   60   62 1    
   119   60  126 1    
   120   61  127 1    
   121   61  128 1    
   122   61  129 1    
   123   62   63 2    
   124   62   64 am   BACKBONE|DICT|INTERRES
   125   64   65 1    
   126   64  130 1    
   127   65   66 1    
   128   65   69 1    
   129   65  131 1    
   130   66   67 am   BACKBONE|DICT|INTERRES
   131   66   68 2    
   132   67  132 1    
   133   67  133 1    
   134   69   70 1    
   135   69  134 1    
   136   69  135 1    
   137   70   71 1    
   138   71  136 1    
   139   71  137 1    
@<TRIPOS>SUBSTRUCTURE
     1 UNK         1 GROUP             0       ****    0 ROOT    
