@<TRIPOS>MOLECULE
3R137
137   139    1
SMALL
USER_CHARGES


@<TRIPOS>ATOM
      1 CA         25.5533   -4.3565    2.3995 C.3       0 UNK        -0.2020 
      2 C          26.3846   -3.2646    1.7432 C.2       0 UNK         0.4855 
      3 O          26.5695   -2.1994    2.3321 O.2       0 UNK        -0.5197 
      4 N          26.8900   -3.5236    0.5300 N.am      1 UNK        -0.4892 
      5 CA         27.7153   -2.5967   -0.2590 C.3       1 UNK         0.0835 
      6 C6         28.3565   -3.2963   -1.4811 C.3       12 UNK        -0.0855 
      7 S7         29.3553   -4.7553   -1.0248 S.3       12 UNK        -0.2931 
      8 C8         31.0089   -4.2904   -1.6472 C.3       12 UNK         0.0378 
      9 C9         31.0777   -4.0175   -3.1509 C.ar      12 UNK        -0.0802 
     10 C10        32.0415   -3.1247   -3.6309 C.ar      12 UNK        -0.0944 
     11 C11        32.1469   -2.8555   -4.9975 C.ar      12 UNK        -0.0787 
     12 C12        31.2598   -3.4661   -5.8861 C.ar      12 UNK        -0.0862 
     13 C13        30.2877   -4.3600   -5.4309 C.ar      12 UNK        -0.0733 
     14 C14        30.2220   -4.6510   -4.0631 C.ar      12 UNK        -0.0832 
     15 C15        29.3613   -5.0212   -6.4519 C.3       12 UNK         0.0240 
     16 S16        27.6853   -5.4330   -5.8501 S.3       12 UNK        -0.2522 
     17 C17        27.0343   -3.8224   -5.2972 C.3       12 UNK        -0.0967 
     18 CA         26.6581   -2.8672   -6.4662 C.3       5 UNK         0.0660 
     19 N          25.3740   -2.2119   -6.2361 N.am      5 UNK        -0.4015 
     20 C          24.3845   -2.1092   -7.1332 C.2       4 UNK         0.4946 
     21 O          24.3729   -2.6933   -8.2172 O.2       4 UNK        -0.5353 
     22 CA         23.2041   -1.1810   -6.7774 C.3       4 UNK         0.0277 
     23 CB         22.0136   -2.0034   -6.2577 C.3       4 UNK        -0.1981 
     24 N          23.5292   -0.1367   -5.7988 N.am      4 UNK        -0.4209 
     25 C          24.4886    0.7886   -5.9459 C.2       3 UNK         0.4942 
     26 O          25.1797    0.9003   -6.9570 O.2       3 UNK        -0.5208 
     27 CA         24.7952    1.6844   -4.7328 C.3       3 UNK         0.0250 
     28 CB         23.9782    2.9834   -4.8075 C.3       3 UNK        -0.1990 
     29 N          24.5787    1.0443   -3.4286 N.am      3 UNK        -0.4232 
     30 C          25.1203   -0.1117   -3.0165 C.2       2 UNK         0.4993 
     31 O          25.8412   -0.8261   -3.7224 O.2       2 UNK        -0.5286 
     32 CA         24.7250   -0.5679   -1.6019 C.3       2 UNK         0.0209 
     33 CB         23.3038   -1.1564   -1.6107 C.3       2 UNK        -0.1931 
     34 N          25.6396   -1.5740   -1.0624 N.am      2 UNK        -0.4546 
     35 C          26.9209   -1.3614   -0.7308 C.2       1 UNK         0.5154 
     36 O          27.4718   -0.2604   -0.7791 O.2       1 UNK        -0.5181 
     37 C          27.7323   -1.7835   -6.6744 C.2       5 UNK         0.5014 
     38 O          28.3971   -1.7693   -7.7111 O.2       5 UNK        -0.5248 
     39 N          27.8920   -0.9029   -5.6754 N.am      6 UNK        -0.4434 
     40 CA         29.0298    0.0068   -5.5531 C.3       6 UNK         0.0363 
     41 CB         29.0565    0.6111   -4.1410 C.3       6 UNK        -0.1936 
     42 C          29.0863    1.1066   -6.6223 C.2       6 UNK         0.5081 
     43 O          30.1523    1.3373   -7.1921 O.2       6 UNK        -0.5248 
     44 N          27.9492    1.7585   -6.8981 N.am      7 UNK        -0.4718 
     45 CA         27.8496    2.8178   -7.9074 C.3       7 UNK         0.0273 
     46 CB         26.6766    3.7572   -7.5838 C.3       7 UNK        -0.1935 
     47 C          27.7232    2.2437   -9.3262 C.2       7 UNK         0.5018 
     48 O          28.1382    2.9071  -10.2756 O.2       7 UNK        -0.5186 
     49 N          27.1997    1.0138   -9.4441 N.am      8 UNK        -0.4240 
     50 CA         27.1844    0.2335  -10.6837 C.3       8 UNK         0.0235 
     51 CB         26.2840   -1.0002  -10.5158 C.3       8 UNK        -0.2000 
     52 C          28.6032   -0.1655  -11.1270 C.2       8 UNK         0.4941 
     53 O          28.9324   -0.0156  -12.3041 O.2       8 UNK        -0.5273 
     54 N          29.4290   -0.6211  -10.1726 N.am      9 UNK        -0.4262 
     55 CA         30.8627   -0.8654  -10.3642 C.3       9 UNK         0.0264 
     56 CB         31.3814   -1.7276   -9.2051 C.3       9 UNK        -0.1955 
     57 C          31.6903    0.4296  -10.4690 C.2       9 UNK         0.5031 
     58 O          32.7669    0.4060  -11.0667 O.2       9 UNK        -0.5390 
     59 N          31.1759    1.5168   -9.8773 N.am      10 UNK        -0.4204 
     60 CA         31.7672    2.8516   -9.7474 C.3       10 UNK         0.0237 
     61 CB         31.9886    3.5074  -11.1274 C.3       10 UNK        -0.1985 
     62 C          33.0209    2.8567   -8.8524 C.2       10 UNK         0.4970 
     63 O          33.9790    3.5758   -9.1440 O.2       10 UNK        -0.4914 
     64 N          32.9889    2.0588   -7.7776 N.am      11 UNK        -0.4285 
     65 CA         34.0327    2.0069   -6.7455 C.3       11 UNK         0.1007 
     66 C          33.8134    3.0604   -5.6229 C.2       11 UNK         0.5703 
     67 N          34.8050    3.2652   -4.7656 N.am      11 UNK        -0.7361 
     68 O          32.7649    3.6951   -5.5152 O.2       11 UNK        -0.4986 
     69 C69        34.2395    0.5661   -6.2055 C.3       12 UNK        -0.0947 
     70 S70        32.7621   -0.1919   -5.4519 S.3       12 UNK        -0.2240 
     71 C71        33.2442   -1.9412   -5.5202 C.3       12 UNK         0.0194 
     72 H72        24.5445   -3.9936    2.5949 H         1 UNK         0.0906 
     73 H73        25.4785   -5.2454    1.7733 H         1 UNK         0.0906 
     74 H74        26.0004   -4.6484    3.3494 H         1 UNK         0.0906 
     75 H75        26.7412   -4.4319    0.1127 H         1 UNK         0.3140 
     76 H76        28.5176   -2.2342    0.3877 H         1 UNK         0.1085 
     77 H77        28.9766   -2.5887   -2.0357 H         1 UNK         0.0836 
     78 H78        27.5857   -3.6296   -2.1783 H         1 UNK         0.0836 
     79 H79        31.3451   -3.4128   -1.0924 H         1 UNK         0.0731 
     80 H80        31.7078   -5.0931   -1.4093 H         1 UNK         0.0731 
     81 H81        32.7240   -2.6460   -2.9415 H         1 UNK         0.1312 
     82 H82        31.3402   -3.2604   -6.9422 H         1 UNK         0.1406 
     83 H83        29.4939   -5.3663   -3.7081 H         1 UNK         0.1631 
     84 H84        29.8355   -5.9410   -6.7958 H         1 UNK         0.0717 
     85 H85        29.2585   -4.3858   -7.3329 H         1 UNK         0.0717 
     86 H86        26.1480   -4.0524   -4.7031 H         1 UNK         0.0934 
     87 H87        27.7299   -3.3736   -4.5863 H         1 UNK         0.0934 
     88 H88        26.6040   -3.4458   -7.3909 H         1 UNK         0.0739 
     89 H89        25.3001   -1.6852   -5.3709 H         1 UNK         0.3093 
     90 H90        22.9019   -0.6802   -7.6996 H         1 UNK         0.0818 
     91 H91        21.1368   -1.3762   -6.0955 H         1 UNK         0.0819 
     92 H92        21.7286   -2.7740   -6.9757 H         1 UNK         0.0819 
     93 H93        22.2485   -2.5051   -5.3180 H         1 UNK         0.0819 
     94 H94        23.0160   -0.1538   -4.9298 H         1 UNK         0.3041 
     95 H95        25.8529    1.9478   -4.7852 H         1 UNK         0.0784 
     96 H96        24.1271    3.4875   -5.7634 H         1 UNK         0.0793 
     97 H97        22.9088    2.7954   -4.7032 H         1 UNK         0.0793 
     98 H98        24.2741    3.6846   -4.0268 H         1 UNK         0.0793 
     99 H99        23.9837    1.5479   -2.7858 H         1 UNK         0.3024 
    100 H100       24.7519    0.3009   -0.9400 H         1 UNK         0.1171 
    101 H101       22.5717   -0.4239   -1.9531 H         1 UNK         0.0786 
    102 H102       22.9980   -1.4683   -0.6117 H         1 UNK         0.0786 
    103 H103       23.2298   -2.0233   -2.2691 H         1 UNK         0.0786 
    104 H104       25.2867   -2.5167   -0.9931 H         1 UNK         0.2977 
    105 H105       27.2572   -0.9398   -4.8798 H         1 UNK         0.3127 
    106 H106       29.9280   -0.6010   -5.6714 H         1 UNK         0.0770 
    107 H107       28.1575    1.1905   -3.9289 H         1 UNK         0.0814 
    108 H108       29.9133    1.2753   -4.0189 H         1 UNK         0.0814 
    109 H109       29.1399   -0.1655   -3.3802 H         1 UNK         0.0814 
    110 H110       27.0796    1.4436   -6.4851 H         1 UNK         0.2983 
    111 H111       28.7647    3.4139   -7.8742 H         1 UNK         0.0947 
    112 H112       26.6965    4.6322   -8.2347 H         1 UNK         0.0806 
    113 H113       26.7236    4.1174   -6.5561 H         1 UNK         0.0806 
    114 H114       25.7108    3.2752   -7.7311 H         1 UNK         0.0806 
    115 H115       26.8406    0.5692   -8.6091 H         1 UNK         0.3000 
    116 H116       26.7555    0.8615  -11.4677 H         1 UNK         0.0850 
    117 H117       26.2277   -1.5700  -11.4441 H         1 UNK         0.0810 
    118 H118       25.2662   -0.7154  -10.2483 H         1 UNK         0.0810 
    119 H119       26.6532   -1.6750   -9.7433 H         1 UNK         0.0810 
    120 H120       29.0540   -0.8113   -9.2454 H         1 UNK         0.3040 
    121 H121       30.9970   -1.4218  -11.2943 H         1 UNK         0.0766 
    122 H122       32.4443   -1.9445   -9.3195 H         1 UNK         0.0812 
    123 H123       30.8556   -2.6815   -9.1640 H         1 UNK         0.0812 
    124 H124       31.2502   -1.2262   -8.2446 H         1 UNK         0.0812 
    125 H125       30.3363    1.3759   -9.3294 H         1 UNK         0.3205 
    126 H126       31.0256    3.4528   -9.2195 H         1 UNK         0.0754 
    127 H127       32.2872    4.5509  -11.0202 H         1 UNK         0.0769 
    128 H128       31.0747    3.4921  -11.7216 H         1 UNK         0.0769 
    129 H129       32.7696    3.0035  -11.6974 H         1 UNK         0.0769 
    130 H130       32.1216    1.5806   -7.5524 H         1 UNK         0.2981 
    131 H131       34.9762    2.2864   -7.2183 H         1 UNK         0.0541 
    132 H132       35.6722    2.7566   -4.8379 H         1 UNK         0.3459 
    133 H133       34.6821    3.9433   -4.0301 H         1 UNK         0.3459 
    134 H134       35.0503    0.5382   -5.4759 H         1 UNK         0.0612 
    135 H135       34.5660   -0.0698   -7.0298 H         1 UNK         0.0612 
    136 H136       34.1556   -2.0849   -4.9378 H         1 UNK         0.0624 
    137 H137       33.4911   -2.2062   -6.5496 H         1 UNK         0.0624 
@<TRIPOS>BOND
     1    1    2 1    
     2    1   72 1    
     3    1   73 1    
     4    1   74 1    
     5    2    3 2    
     6    2    4 am   BACKBONE|DICT|INTERRES
     7    4    5 1    
     8    4   75 1    
     9    5    6 1    
    10    5   35 1    
    11    5   76 1    
    12    6    7 1    
    13    6   77 1    
    14    6   78 1    
    15    7    8 1    
    16    8    9 1    
    17    8   79 1    
    18    8   80 1    
    19    9   10 ar   
    20    9   14 ar   
    21   10   11 ar   
    22   10   81 1    
    23   11   12 ar   
    24   11   71 1    
    25   12   13 ar   
    26   12   82 1    
    27   13   14 ar   
    28   13   15 1    
    29   14   83 1    
    30   15   16 1    
    31   15   84 1    
    32   15   85 1    
    33   16   17 1    
    34   17   18 1    
    35   17   86 1    
    36   17   87 1    
    37   18   19 1    
    38   18   37 1    
    39   18   88 1    
    40   19   20 am   BACKBONE|DICT|INTERRES
    41   19   89 1    
    42   20   21 2    
    43   20   22 1    
    44   22   23 1    
    45   22   24 1    
    46   22   90 1    
    47   23   91 1    
    48   23   92 1    
    49   23   93 1    
    50   24   25 am   BACKBONE|DICT|INTERRES
    51   24   94 1    
    52   25   26 2    
    53   25   27 1    
    54   27   28 1    
    55   27   29 1    
    56   27   95 1    
    57   28   96 1    
    58   28   97 1    
    59   28   98 1    
    60   29   30 am   BACKBONE|DICT|INTERRES
    61   29   99 1    
    62   30   31 2    
    63   30   32 1    
    64   32   33 1    
    65   32   34 1    
    66   32  100 1    
    67   33  101 1    
    68   33  102 1    
    69   33  103 1    
    70   34   35 am   BACKBONE|DICT|INTERRES
    71   34  104 1    
    72   35   36 2    
    73   37   38 2    
    74   37   39 am   BACKBONE|DICT|INTERRES
    75   39   40 1    
    76   39  105 1    
    77   40   41 1    
    78   40   42 1    
    79   40  106 1    
    80   41  107 1    
    81   41  108 1    
    82   41  109 1    
    83   42   43 2    
    84   42   44 am   BACKBONE|DICT|INTERRES
    85   44   45 1    
    86   44  110 1    
    87   45   46 1    
    88   45   47 1    
    89   45  111 1    
    90   46  112 1    
    91   46  113 1    
    92   46  114 1    
    93   47   48 2    
    94   47   49 am   BACKBONE|DICT|INTERRES
    95   49   50 1    
    96   49  115 1    
    97   50   51 1    
    98   50   52 1    
    99   50  116 1    
   100   51  117 1    
   101   51  118 1    
   102   51  119 1    
   103   52   53 2    
   104   52   54 am   BACKBONE|DICT|INTERRES
   105   54   55 1    
   106   54  120 1    
   107   55   56 1    
   108   55   57 1    
   109   55  121 1    
   110   56  122 1    
   111   56  123 1    
   112   56  124 1    
   113   57   58 2    
   114   57   59 am   BACKBONE|DICT|INTERRES
   115   59   60 1    
   116   59  125 1    
   117   60   61 1    
   118   60   62 1    
   119   60  126 1    
   120   61  127 1    
   121   61  128 1    
   122   61  129 1    
   123   62   63 2    
   124   62   64 am   BACKBONE|DICT|INTERRES
   125   64   65 1    
   126   64  130 1    
   127   65   66 1    
   128   65   69 1    
   129   65  131 1    
   130   66   67 am   BACKBONE|DICT|INTERRES
   131   66   68 2    
   132   67  132 1    
   133   67  133 1    
   134   69   70 1    
   135   69  134 1    
   136   69  135 1    
   137   70   71 1    
   138   71  136 1    
   139   71  137 1    
@<TRIPOS>SUBSTRUCTURE
     1 UNK         1 GROUP             0       ****    0 ROOT    
