@<TRIPOS>MOLECULE
3R137
137   139    1
SMALL
USER_CHARGES


@<TRIPOS>ATOM
      1 CA         27.9625   -5.7118   -8.1896 C.3       0 UNK        -0.2020 
      2 C          27.5062   -6.0147   -6.7709 C.2       0 UNK         0.4855 
      3 O          26.7828   -6.9866   -6.5532 O.2       0 UNK        -0.5197 
      4 N          27.9283   -5.1906   -5.8034 N.am      1 UNK        -0.4892 
      5 CA         27.6331   -5.3465   -4.3708 C.3       1 UNK         0.0835 
      6 C6         28.5662   -4.4678   -3.4998 C.3       12 UNK        -0.0855 
      7 S7         30.3282   -4.8901   -3.7246 S.3       12 UNK        -0.2931 
      8 C8         31.0499   -4.3207   -2.1519 C.3       12 UNK         0.0378 
      9 C9         31.1314   -2.8022   -2.0852 C.ar      12 UNK        -0.0802 
     10 C10        32.2425   -2.1344   -2.6110 C.ar      12 UNK        -0.0944 
     11 C11        32.3220   -0.7393   -2.5573 C.ar      12 UNK        -0.0787 
     12 C12        31.2858   -0.0138   -1.9629 C.ar      12 UNK        -0.0862 
     13 C13        30.1553   -0.6672   -1.4662 C.ar      12 UNK        -0.0733 
     14 C14        30.0919   -2.0635   -1.5113 C.ar      12 UNK        -0.0832 
     15 C15        28.9681    0.1419   -0.9606 C.3       12 UNK         0.0240 
     16 S16        28.1859    1.1132   -2.2967 S.3       12 UNK        -0.2522 
     17 C17        28.0130   -0.1506   -3.6058 C.3       12 UNK        -0.0967 
     18 CA         27.3328    0.3426   -4.9015 C.3       5 UNK         0.0660 
     19 N          25.9663    0.8308   -4.6856 N.am      5 UNK        -0.4015 
     20 C          25.0977    1.1329   -5.6610 C.2       4 UNK         0.4946 
     21 O          25.3952    1.1083   -6.8581 O.2       4 UNK        -0.5353 
     22 CA         23.6647    1.4974   -5.2310 C.3       4 UNK         0.0277 
     23 CB         22.7399    1.7556   -6.4358 C.3       4 UNK        -0.1981 
     24 N          23.0900    0.4305   -4.4093 N.am      4 UNK        -0.4209 
     25 C          23.2342    0.3158   -3.0819 C.2       3 UNK         0.4942 
     26 O          23.8041    1.1546   -2.3837 O.2       3 UNK        -0.5208 
     27 CA         22.7104   -0.9813   -2.4364 C.3       3 UNK         0.0250 
     28 CB         21.2243   -0.8417   -2.0690 C.3       3 UNK        -0.1990 
     29 N          22.9018   -2.1714   -3.2770 N.am      3 UNK        -0.4232 
     30 C          24.0953   -2.6263   -3.6864 C.2       2 UNK         0.4993 
     31 O          25.1652   -2.0991   -3.3761 O.2       2 UNK        -0.5286 
     32 CA         24.0825   -3.8398   -4.6339 C.3       2 UNK         0.0209 
     33 CB         23.4417   -3.4690   -5.9833 C.3       2 UNK        -0.1931 
     34 N          25.4399   -4.3347   -4.8794 N.am      2 UNK        -0.4546 
     35 C          26.1547   -5.0687   -4.0150 C.2       1 UNK         0.5154 
     36 O          25.6944   -5.5177   -2.9633 O.2       1 UNK        -0.5181 
     37 C          28.2279    1.3119   -5.7005 C.2       5 UNK         0.5014 
     38 O          29.0657    0.8491   -6.4745 O.2       5 UNK        -0.5248 
     39 N          27.9836    2.6242   -5.5780 N.am      6 UNK        -0.4434 
     40 CA         28.6337    3.6747   -6.3681 C.3       6 UNK         0.0363 
     41 CB         28.1639    5.0479   -5.8628 C.3       6 UNK        -0.1936 
     42 C          28.4064    3.5536   -7.8894 C.2       6 UNK         0.5081 
     43 O          29.2222    4.0683   -8.6539 O.2       6 UNK        -0.5248 
     44 N          27.3266    2.8745   -8.3006 N.am      7 UNK        -0.4718 
     45 CA         27.0454    2.5229   -9.6907 C.3       7 UNK         0.0273 
     46 CB         25.5716    2.8313  -10.0054 C.3       7 UNK        -0.1935 
     47 C          27.3562    1.0419   -9.9561 C.2       7 UNK         0.5018 
     48 O          27.9885    0.7345  -10.9666 O.2       7 UNK        -0.5186 
     49 N          26.8876    0.1525   -9.0673 N.am      8 UNK        -0.4240 
     50 CA         26.9450   -1.3008   -9.2447 C.3       8 UNK         0.0235 
     51 CB         25.9562   -1.9767   -8.2816 C.3       8 UNK        -0.2000 
     52 C          28.3515   -1.8989   -9.0880 C.2       8 UNK         0.4941 
     53 O          28.7411   -2.7305   -9.9083 O.2       8 UNK        -0.5273 
     54 N          29.0760   -1.4906   -8.0382 N.am      9 UNK        -0.4262 
     55 CA         30.4452   -1.9323   -7.7596 C.3       9 UNK         0.0264 
     56 CB         30.6598   -2.0443   -6.2393 C.3       9 UNK        -0.1955 
     57 C          31.4732   -0.9728   -8.3752 C.2       9 UNK         0.5031 
     58 O          32.5467   -1.4236   -8.7770 O.2       9 UNK        -0.5390 
     59 N          31.1428    0.3278   -8.4172 N.am      10 UNK        -0.4204 
     60 CA         31.9089    1.4657   -8.9525 C.3       10 UNK         0.0237 
     61 CB         32.2293    1.2845  -10.4488 C.3       10 UNK        -0.1985 
     62 C          33.1693    1.8282   -8.1442 C.2       10 UNK         0.4970 
     63 O          33.4619    3.0154   -7.9988 O.2       10 UNK        -0.4914 
     64 N          33.8610    0.8164   -7.6079 N.am      11 UNK        -0.4285 
     65 CA         34.9546    0.9085   -6.6248 C.3       11 UNK         0.1007 
     66 C          36.2949    1.4746   -7.1827 C.2       11 UNK         0.5703 
     67 N          36.4753    1.5753   -8.4944 N.am      11 UNK        -0.7361 
     68 O          37.2022    1.7968   -6.4188 O.2       11 UNK        -0.4986 
     69 C69        34.5209    1.5927   -5.2928 C.3       12 UNK        -0.0947 
     70 S70        32.9479    0.9398   -4.6341 S.3       12 UNK        -0.2240 
     71 C71        33.4979   -0.0046   -3.1820 C.3       12 UNK         0.0194 
     72 H72        28.7332   -4.9418   -8.2128 H         1 UNK         0.0906 
     73 H73        28.3729   -6.6091   -8.6521 H         1 UNK         0.0906 
     74 H74        27.1216   -5.3720   -8.7933 H         1 UNK         0.0906 
     75 H75        28.5560   -4.4347   -6.0343 H         1 UNK         0.3140 
     76 H76        27.8170   -6.3916   -4.1103 H         1 UNK         0.1085 
     77 H77        28.3168   -4.5899   -2.4437 H         1 UNK         0.0836 
     78 H78        28.4266   -3.4090   -3.7270 H         1 UNK         0.0836 
     79 H79        32.0503   -4.7449   -2.0531 H         1 UNK         0.0731 
     80 H80        30.4729   -4.7137   -1.3134 H         1 UNK         0.0731 
     81 H81        33.0361   -2.7021   -3.0774 H         1 UNK         0.1312 
     82 H82        31.3301    1.0668   -1.9454 H         1 UNK         0.1406 
     83 H83        29.2188   -2.5747   -1.1294 H         1 UNK         0.1631 
     84 H84        29.2979    0.8189   -0.1715 H         1 UNK         0.0717 
     85 H85        28.2159   -0.5106   -0.5144 H         1 UNK         0.0717 
     86 H86        28.9981   -0.5519   -3.8507 H         1 UNK         0.0934 
     87 H87        27.4550   -0.9897   -3.1905 H         1 UNK         0.0934 
     88 H88        27.2262   -0.5394   -5.5349 H         1 UNK         0.0739 
     89 H89        25.6468    0.8627   -3.7251 H         1 UNK         0.3093 
     90 H90        23.7225    2.4202   -4.6497 H         1 UNK         0.0818 
     91 H91        23.1205    2.5711   -7.0525 H         1 UNK         0.0819 
     92 H92        21.7371    2.0363   -6.1135 H         1 UNK         0.0819 
     93 H93        22.6538    0.8768   -7.0763 H         1 UNK         0.0819 
     94 H94        22.6374   -0.3239   -4.9043 H         1 UNK         0.3041 
     95 H95        23.2763   -1.1366   -1.5151 H         1 UNK         0.0784 
     96 H96        21.0615    0.0255   -1.4271 H         1 UNK         0.0793 
     97 H97        20.5977   -0.7148   -2.9528 H         1 UNK         0.0793 
     98 H98        20.8658   -1.7157   -1.5248 H         1 UNK         0.0793 
     99 H99        22.0662   -2.6589   -3.5681 H         1 UNK         0.3024 
    100 H100       23.4983   -4.6361   -4.1665 H         1 UNK         0.1171 
    101 H101       23.5245   -4.2843   -6.7026 H         1 UNK         0.0786 
    102 H102       22.3790   -3.2523   -5.8699 H         1 UNK         0.0786 
    103 H103       23.9059   -2.5854   -6.4206 H         1 UNK         0.0786 
    104 H104       25.9083   -3.9963   -5.7054 H         1 UNK         0.2977 
    105 H105       27.2795    2.9178   -4.9168 H         1 UNK         0.3127 
    106 H106       29.7094    3.5937   -6.1967 H         1 UNK         0.0770 
    107 H107       27.0880    5.1774   -5.9875 H         1 UNK         0.0814 
    108 H108       28.6543    5.8536   -6.4111 H         1 UNK         0.0814 
    109 H109       28.4012    5.1865   -4.8078 H         1 UNK         0.0814 
    110 H110       26.7138    2.4646   -7.6040 H         1 UNK         0.2983 
    111 H111       27.6639    3.1170  -10.3675 H         1 UNK         0.0947 
    112 H112       25.3298    2.5696  -11.0364 H         1 UNK         0.0806 
    113 H113       25.3567    3.8928   -9.8821 H         1 UNK         0.0806 
    114 H114       24.8905    2.2764   -9.3588 H         1 UNK         0.0806 
    115 H115       26.3500    0.4950   -8.2726 H         1 UNK         0.3000 
    116 H116       26.6137   -1.5198  -10.2624 H         1 UNK         0.0850 
    117 H117       25.9478   -3.0581   -8.4236 H         1 UNK         0.0810 
    118 H118       24.9399   -1.6208   -8.4523 H         1 UNK         0.0810 
    119 H119       26.2058   -1.7841   -7.2388 H         1 UNK         0.0810 
    120 H120       28.7255   -0.7371   -7.4553 H         1 UNK         0.3040 
    121 H121       30.6067   -2.9217   -8.1929 H         1 UNK         0.0766 
    122 H122       29.8899   -2.6537   -5.7694 H         1 UNK         0.0812 
    123 H123       30.6593   -1.0715   -5.7472 H         1 UNK         0.0812 
    124 H124       31.6210   -2.5097   -6.0171 H         1 UNK         0.0812 
    125 H125       30.2917    0.5869   -7.9237 H         1 UNK         0.3205 
    126 H126       31.2396    2.3223   -8.8684 H         1 UNK         0.0754 
    127 H127       31.3228    1.0981  -11.0253 H         1 UNK         0.0769 
    128 H128       32.9159    0.4562  -10.6247 H         1 UNK         0.0769 
    129 H129       32.6944    2.1827  -10.8569 H         1 UNK         0.0769 
    130 H130       33.5618   -0.1228   -7.8542 H         1 UNK         0.2981 
    131 H131       35.1863   -0.1282   -6.3792 H         1 UNK         0.0541 
    132 H132       35.7414    1.3072   -9.1301 H         1 UNK         0.3459 
    133 H133       37.3490    1.9315   -8.8483 H         1 UNK         0.3459 
    134 H134       35.2973    1.4802   -4.5343 H         1 UNK         0.0612 
    135 H135       34.3990    2.6668   -5.4403 H         1 UNK         0.0612 
    136 H136       34.2795   -0.7044   -3.4817 H         1 UNK         0.0624 
    137 H137       33.9398    0.6732   -2.4503 H         1 UNK         0.0624 
@<TRIPOS>BOND
     1    1    2 1    
     2    1   72 1    
     3    1   73 1    
     4    1   74 1    
     5    2    3 2    
     6    2    4 am   BACKBONE|DICT|INTERRES
     7    4    5 1    
     8    4   75 1    
     9    5    6 1    
    10    5   35 1    
    11    5   76 1    
    12    6    7 1    
    13    6   77 1    
    14    6   78 1    
    15    7    8 1    
    16    8    9 1    
    17    8   79 1    
    18    8   80 1    
    19    9   10 ar   
    20    9   14 ar   
    21   10   11 ar   
    22   10   81 1    
    23   11   12 ar   
    24   11   71 1    
    25   12   13 ar   
    26   12   82 1    
    27   13   14 ar   
    28   13   15 1    
    29   14   83 1    
    30   15   16 1    
    31   15   84 1    
    32   15   85 1    
    33   16   17 1    
    34   17   18 1    
    35   17   86 1    
    36   17   87 1    
    37   18   19 1    
    38   18   37 1    
    39   18   88 1    
    40   19   20 am   BACKBONE|DICT|INTERRES
    41   19   89 1    
    42   20   21 2    
    43   20   22 1    
    44   22   23 1    
    45   22   24 1    
    46   22   90 1    
    47   23   91 1    
    48   23   92 1    
    49   23   93 1    
    50   24   25 am   BACKBONE|DICT|INTERRES
    51   24   94 1    
    52   25   26 2    
    53   25   27 1    
    54   27   28 1    
    55   27   29 1    
    56   27   95 1    
    57   28   96 1    
    58   28   97 1    
    59   28   98 1    
    60   29   30 am   BACKBONE|DICT|INTERRES
    61   29   99 1    
    62   30   31 2    
    63   30   32 1    
    64   32   33 1    
    65   32   34 1    
    66   32  100 1    
    67   33  101 1    
    68   33  102 1    
    69   33  103 1    
    70   34   35 am   BACKBONE|DICT|INTERRES
    71   34  104 1    
    72   35   36 2    
    73   37   38 2    
    74   37   39 am   BACKBONE|DICT|INTERRES
    75   39   40 1    
    76   39  105 1    
    77   40   41 1    
    78   40   42 1    
    79   40  106 1    
    80   41  107 1    
    81   41  108 1    
    82   41  109 1    
    83   42   43 2    
    84   42   44 am   BACKBONE|DICT|INTERRES
    85   44   45 1    
    86   44  110 1    
    87   45   46 1    
    88   45   47 1    
    89   45  111 1    
    90   46  112 1    
    91   46  113 1    
    92   46  114 1    
    93   47   48 2    
    94   47   49 am   BACKBONE|DICT|INTERRES
    95   49   50 1    
    96   49  115 1    
    97   50   51 1    
    98   50   52 1    
    99   50  116 1    
   100   51  117 1    
   101   51  118 1    
   102   51  119 1    
   103   52   53 2    
   104   52   54 am   BACKBONE|DICT|INTERRES
   105   54   55 1    
   106   54  120 1    
   107   55   56 1    
   108   55   57 1    
   109   55  121 1    
   110   56  122 1    
   111   56  123 1    
   112   56  124 1    
   113   57   58 2    
   114   57   59 am   BACKBONE|DICT|INTERRES
   115   59   60 1    
   116   59  125 1    
   117   60   61 1    
   118   60   62 1    
   119   60  126 1    
   120   61  127 1    
   121   61  128 1    
   122   61  129 1    
   123   62   63 2    
   124   62   64 am   BACKBONE|DICT|INTERRES
   125   64   65 1    
   126   64  130 1    
   127   65   66 1    
   128   65   69 1    
   129   65  131 1    
   130   66   67 am   BACKBONE|DICT|INTERRES
   131   66   68 2    
   132   67  132 1    
   133   67  133 1    
   134   69   70 1    
   135   69  134 1    
   136   69  135 1    
   137   70   71 1    
   138   71  136 1    
   139   71  137 1    
@<TRIPOS>SUBSTRUCTURE
     1 UNK         1 GROUP             0       ****    0 ROOT    
