@<TRIPOS>MOLECULE
3R137
137   139    1
SMALL
USER_CHARGES


@<TRIPOS>ATOM
      1 CA         28.7425   -2.6652   -5.5557 C.3       0 UNK        -0.2020 
      2 C          28.2407   -3.8309   -4.7183 C.2       0 UNK         0.4855 
      3 O          27.5194   -4.6868   -5.2329 O.2       0 UNK        -0.5197 
      4 N          28.6218   -3.8748   -3.4343 N.am      1 UNK        -0.4892 
      5 CA         28.2428   -4.9067   -2.4626 C.3       1 UNK         0.0835 
      6 C6         29.0320   -4.7755   -1.1357 C.3       12 UNK        -0.0855 
      7 S7         30.8375   -4.9182   -1.3620 S.3       12 UNK        -0.2931 
      8 C8         31.4561   -3.5578   -0.3218 C.3       12 UNK         0.0378 
      9 C9         31.6144   -2.2564   -1.0978 C.ar      12 UNK        -0.0802 
     10 C10        32.8685   -1.8919   -1.5950 C.ar      12 UNK        -0.0944 
     11 C11        33.0498   -0.6647   -2.2384 C.ar      12 UNK        -0.0787 
     12 C12        31.9595    0.1946   -2.3981 C.ar      12 UNK        -0.0862 
     13 C13        30.6885   -0.1622   -1.9246 C.ar      12 UNK        -0.0733 
     14 C14        30.5309   -1.3889   -1.2693 C.ar      12 UNK        -0.0832 
     15 C15        29.4687    0.7559   -2.0497 C.3       12 UNK         0.0240 
     16 S16        29.6146    2.1193   -3.2588 S.3       12 UNK        -0.2522 
     17 C17        29.6727    1.2022   -4.8377 C.3       12 UNK        -0.0967 
     18 CA         28.4461    1.4426   -5.7506 C.3       5 UNK         0.0660 
     19 N          27.1703    1.1565   -5.0770 N.am      5 UNK        -0.4015 
     20 C          25.9752    1.1247   -5.6800 C.2       4 UNK         0.4946 
     21 O          25.8097    1.3461   -6.8809 O.2       4 UNK        -0.5353 
     22 CA         24.7533    0.8092   -4.8075 C.3       4 UNK         0.0277 
     23 CB         23.6566    1.8729   -4.9893 C.3       4 UNK        -0.1981 
     24 N          24.2271   -0.5038   -5.1742 N.am      4 UNK        -0.4209 
     25 C          24.8084   -1.6563   -4.8230 C.2       3 UNK         0.4942 
     26 O          25.7756   -1.7233   -4.0608 O.2       3 UNK        -0.5208 
     27 CA         24.2438   -2.9284   -5.4721 C.3       3 UNK         0.0250 
     28 CB         24.7889   -3.0847   -6.9022 C.3       3 UNK        -0.1990 
     29 N          24.6215   -4.1057   -4.6920 N.am      3 UNK        -0.4232 
     30 C          23.8924   -4.6234   -3.6939 C.2       2 UNK         0.4993 
     31 O          22.7654   -4.2275   -3.3922 O.2       2 UNK        -0.5286 
     32 CA         24.5157   -5.7813   -2.8925 C.3       2 UNK         0.0209 
     33 CB         24.0320   -7.1356   -3.4366 C.3       2 UNK        -0.1931 
     34 N          25.9806   -5.7535   -2.9007 N.am      2 UNK        -0.4546 
     35 C          26.7215   -4.8826   -2.2025 C.2       1 UNK         0.5154 
     36 O          26.2497   -4.0755   -1.3986 O.2       1 UNK        -0.5181 
     37 C          28.4949    2.8294   -6.4294 C.2       5 UNK         0.5014 
     38 O          29.1998    2.9845   -7.4247 O.2       5 UNK        -0.5248 
     39 N          27.7101    3.7944   -5.9282 N.am      6 UNK        -0.4434 
     40 CA         27.5105    5.1084   -6.5448 C.3       6 UNK         0.0363 
     41 CB         26.7274    6.0069   -5.5741 C.3       6 UNK        -0.1936 
     42 C          26.7996    5.0485   -7.9122 C.2       6 UNK         0.5081 
     43 O          27.0192    5.9363   -8.7365 O.2       6 UNK        -0.5248 
     44 N          25.9694    4.0188   -8.1307 N.am      7 UNK        -0.4718 
     45 CA         25.2653    3.7694   -9.3895 C.3       7 UNK         0.0273 
     46 CB         23.8262    3.3197   -9.0866 C.3       7 UNK        -0.1935 
     47 C          25.9937    2.7117  -10.2314 C.2       7 UNK         0.5018 
     48 O          26.1201    2.8875  -11.4435 O.2       7 UNK        -0.5186 
     49 N          26.4586    1.6356   -9.5803 N.am      8 UNK        -0.4240 
     50 CA         27.1433    0.5040  -10.2116 C.3       8 UNK         0.0235 
     51 CB         27.1230   -0.6966   -9.2499 C.3       8 UNK        -0.2000 
     52 C          28.5847    0.8080  -10.6561 C.2       8 UNK         0.4941 
     53 O          29.1285    0.0462  -11.4569 O.2       8 UNK        -0.5273 
     54 N          29.1951    1.8717  -10.1123 N.am      9 UNK        -0.4262 
     55 CA         30.5689    2.3592  -10.3102 C.3       9 UNK         0.0264 
     56 CB         30.8576    2.6888  -11.7880 C.3       9 UNK        -0.1955 
     57 C          31.6519    1.4422   -9.7135 C.2       9 UNK         0.5031 
     58 O          32.5853    1.9420   -9.0833 O.2       9 UNK        -0.5390 
     59 N          31.5154    0.1283   -9.9157 N.am      10 UNK        -0.4204 
     60 CA         32.3571   -0.9092   -9.3281 C.3       10 UNK         0.0237 
     61 CB         32.1796   -2.2051  -10.1365 C.3       10 UNK        -0.1985 
     62 C          32.0049   -1.1516   -7.8514 C.2       10 UNK         0.4970 
     63 O          30.8451   -1.0034   -7.4583 O.2       10 UNK        -0.4914 
     64 N          33.0142   -1.5705   -7.0830 N.am      11 UNK        -0.4285 
     65 CA         32.8770   -2.0883   -5.7150 C.3       11 UNK         0.1007 
     66 C          32.3377   -3.5453   -5.6897 C.2       11 UNK         0.5703 
     67 N          31.9063   -4.0172   -4.5291 N.am      11 UNK        -0.7361 
     68 O          32.3268   -4.2577   -6.6924 O.2       11 UNK        -0.4986 
     69 C69        34.2200   -1.9688   -4.9490 C.3       12 UNK        -0.0947 
     70 S70        34.5825   -0.2318   -4.5341 S.3       12 UNK        -0.2240 
     71 C71        34.4349   -0.2467   -2.7185 C.3       12 UNK         0.0194 
     72 H72        29.1141   -3.0237   -6.5154 H         1 UNK         0.0906 
     73 H73        27.9373   -1.9565   -5.7457 H         1 UNK         0.0906 
     74 H74        29.5557   -2.1371   -5.0611 H         1 UNK         0.0906 
     75 H75        29.2134   -3.1439   -3.0693 H         1 UNK         0.3140 
     76 H76        28.4954   -5.8756   -2.8993 H         1 UNK         0.1085 
     77 H77        28.7937   -3.8322   -0.6428 H         1 UNK         0.0836 
     78 H78        28.7290   -5.5593   -0.4385 H         1 UNK         0.0836 
     79 H79        30.8018   -3.4099    0.5387 H         1 UNK         0.0731 
     80 H80        32.4198   -3.8582    0.0926 H         1 UNK         0.0731 
     81 H81        33.7128   -2.5534   -1.4541 H         1 UNK         0.1312 
     82 H82        32.1197    1.1464   -2.8839 H         1 UNK         0.1406 
     83 H83        29.5631   -1.6562   -0.8682 H         1 UNK         0.1631 
     84 H84        28.5892    0.1618   -2.3034 H         1 UNK         0.0717 
     85 H85        29.2716    1.1937   -1.0703 H         1 UNK         0.0717 
     86 H86        30.5975    1.4606   -5.3586 H         1 UNK         0.0934 
     87 H87        29.7607    0.1365   -4.6294 H         1 UNK         0.0934 
     88 H88        28.5257    0.7209   -6.5654 H         1 UNK         0.0739 
     89 H89        27.2252    0.9548   -4.0895 H         1 UNK         0.3093 
     90 H90        25.0480    0.7994   -3.7556 H         1 UNK         0.0818 
     91 H91        22.8009    1.6725   -4.3443 H         1 UNK         0.0819 
     92 H92        24.0288    2.8657   -4.7331 H         1 UNK         0.0819 
     93 H93        23.2959    1.9168   -6.0178 H         1 UNK         0.0819 
     94 H94        23.4661   -0.5173   -5.8379 H         1 UNK         0.3041 
     95 H95        23.1556   -2.8478   -5.5188 H         1 UNK         0.0784 
     96 H96        24.4834   -2.2490   -7.5327 H         1 UNK         0.0793 
     97 H97        25.8788   -3.1245   -6.9193 H         1 UNK         0.0793 
     98 H98        24.4150   -3.9952   -7.3708 H         1 UNK         0.0793 
     99 H99        25.5718   -4.4392   -4.8252 H         1 UNK         0.3024 
    100 H100       24.1727   -5.6836   -1.8597 H         1 UNK         0.1171 
    101 H101       22.9427   -7.1958   -3.4194 H         1 UNK         0.0786 
    102 H102       24.4099   -7.9630   -2.8356 H         1 UNK         0.0786 
    103 H103       24.3508   -7.2946   -4.4676 H         1 UNK         0.0786 
    104 H104       26.4428   -6.3469   -3.5762 H         1 UNK         0.2977 
    105 H105       27.1809    3.5955   -5.0923 H         1 UNK         0.3127 
    106 H106       28.4944    5.5540   -6.7073 H         1 UNK         0.0770 
    107 H107       25.7372    5.6034   -5.3589 H         1 UNK         0.0814 
    108 H108       26.5880    7.0044   -5.9936 H         1 UNK         0.0814 
    109 H109       27.2563    6.1269   -4.6284 H         1 UNK         0.0814 
    110 H110       25.8807    3.3008   -7.4203 H         1 UNK         0.2983 
    111 H111       25.2125    4.6872   -9.9797 H         1 UNK         0.0947 
    112 H112       23.2711    3.1437  -10.0090 H         1 UNK         0.0806 
    113 H113       23.2851    4.0799   -8.5230 H         1 UNK         0.0806 
    114 H114       23.8009    2.3946   -8.5095 H         1 UNK         0.0806 
    115 H115       26.2647    1.5499   -8.5828 H         1 UNK         0.3000 
    116 H116       26.5822    0.2296  -11.1075 H         1 UNK         0.0850 
    117 H117       27.5554   -1.5814   -9.7192 H         1 UNK         0.0810 
    118 H118       26.1053   -0.9511   -8.9547 H         1 UNK         0.0810 
    119 H119       27.6949   -0.5002   -8.3435 H         1 UNK         0.0810 
    120 H120       28.6960    2.3646   -9.3801 H         1 UNK         0.3040 
    121 H121       30.6213    3.2976   -9.7557 H         1 UNK         0.0766 
    122 H122       31.8357    3.1596  -11.8947 H         1 UNK         0.0812 
    123 H123       30.1184    3.3813  -12.1906 H         1 UNK         0.0812 
    124 H124       30.8598    1.7976  -12.4159 H         1 UNK         0.0812 
    125 H125       30.7024   -0.1736  -10.4467 H         1 UNK         0.3205 
    126 H126       33.3997   -0.5910   -9.3983 H         1 UNK         0.0754 
    127 H127       32.8068   -3.0049   -9.7399 H         1 UNK         0.0769 
    128 H128       32.4576   -2.0629  -11.1811 H         1 UNK         0.0769 
    129 H129       31.1473   -2.5576  -10.1089 H         1 UNK         0.0769 
    130 H130       33.9255   -1.6854   -7.5001 H         1 UNK         0.2981 
    131 H131       32.1306   -1.4800   -5.1990 H         1 UNK         0.0541 
    132 H132       31.9445   -3.4629   -3.6882 H         1 UNK         0.3459 
    133 H133       31.5675   -4.9647   -4.4836 H         1 UNK         0.3459 
    134 H134       35.0429   -2.3670   -5.5450 H         1 UNK         0.0612 
    135 H135       34.2132   -2.5569   -4.0305 H         1 UNK         0.0612 
    136 H136       35.2027   -0.9040   -2.3072 H         1 UNK         0.0624 
    137 H137       34.6574    0.7525   -2.3418 H         1 UNK         0.0624 
@<TRIPOS>BOND
     1    1    2 1    
     2    1   72 1    
     3    1   73 1    
     4    1   74 1    
     5    2    3 2    
     6    2    4 am   BACKBONE|DICT|INTERRES
     7    4    5 1    
     8    4   75 1    
     9    5    6 1    
    10    5   35 1    
    11    5   76 1    
    12    6    7 1    
    13    6   77 1    
    14    6   78 1    
    15    7    8 1    
    16    8    9 1    
    17    8   79 1    
    18    8   80 1    
    19    9   10 ar   
    20    9   14 ar   
    21   10   11 ar   
    22   10   81 1    
    23   11   12 ar   
    24   11   71 1    
    25   12   13 ar   
    26   12   82 1    
    27   13   14 ar   
    28   13   15 1    
    29   14   83 1    
    30   15   16 1    
    31   15   84 1    
    32   15   85 1    
    33   16   17 1    
    34   17   18 1    
    35   17   86 1    
    36   17   87 1    
    37   18   19 1    
    38   18   37 1    
    39   18   88 1    
    40   19   20 am   BACKBONE|DICT|INTERRES
    41   19   89 1    
    42   20   21 2    
    43   20   22 1    
    44   22   23 1    
    45   22   24 1    
    46   22   90 1    
    47   23   91 1    
    48   23   92 1    
    49   23   93 1    
    50   24   25 am   BACKBONE|DICT|INTERRES
    51   24   94 1    
    52   25   26 2    
    53   25   27 1    
    54   27   28 1    
    55   27   29 1    
    56   27   95 1    
    57   28   96 1    
    58   28   97 1    
    59   28   98 1    
    60   29   30 am   BACKBONE|DICT|INTERRES
    61   29   99 1    
    62   30   31 2    
    63   30   32 1    
    64   32   33 1    
    65   32   34 1    
    66   32  100 1    
    67   33  101 1    
    68   33  102 1    
    69   33  103 1    
    70   34   35 am   BACKBONE|DICT|INTERRES
    71   34  104 1    
    72   35   36 2    
    73   37   38 2    
    74   37   39 am   BACKBONE|DICT|INTERRES
    75   39   40 1    
    76   39  105 1    
    77   40   41 1    
    78   40   42 1    
    79   40  106 1    
    80   41  107 1    
    81   41  108 1    
    82   41  109 1    
    83   42   43 2    
    84   42   44 am   BACKBONE|DICT|INTERRES
    85   44   45 1    
    86   44  110 1    
    87   45   46 1    
    88   45   47 1    
    89   45  111 1    
    90   46  112 1    
    91   46  113 1    
    92   46  114 1    
    93   47   48 2    
    94   47   49 am   BACKBONE|DICT|INTERRES
    95   49   50 1    
    96   49  115 1    
    97   50   51 1    
    98   50   52 1    
    99   50  116 1    
   100   51  117 1    
   101   51  118 1    
   102   51  119 1    
   103   52   53 2    
   104   52   54 am   BACKBONE|DICT|INTERRES
   105   54   55 1    
   106   54  120 1    
   107   55   56 1    
   108   55   57 1    
   109   55  121 1    
   110   56  122 1    
   111   56  123 1    
   112   56  124 1    
   113   57   58 2    
   114   57   59 am   BACKBONE|DICT|INTERRES
   115   59   60 1    
   116   59  125 1    
   117   60   61 1    
   118   60   62 1    
   119   60  126 1    
   120   61  127 1    
   121   61  128 1    
   122   61  129 1    
   123   62   63 2    
   124   62   64 am   BACKBONE|DICT|INTERRES
   125   64   65 1    
   126   64  130 1    
   127   65   66 1    
   128   65   69 1    
   129   65  131 1    
   130   66   67 am   BACKBONE|DICT|INTERRES
   131   66   68 2    
   132   67  132 1    
   133   67  133 1    
   134   69   70 1    
   135   69  134 1    
   136   69  135 1    
   137   70   71 1    
   138   71  136 1    
   139   71  137 1    
@<TRIPOS>SUBSTRUCTURE
     1 UNK         1 GROUP             0       ****    0 ROOT    
