@<TRIPOS>MOLECULE
3R137
137   139    1
SMALL
USER_CHARGES


@<TRIPOS>ATOM
      1 CA         28.5526   -5.9156    0.7297 C.3       0 UNK        -0.2020 
      2 C          27.4223   -4.9487    1.0490 C.2       0 UNK         0.4855 
      3 O          26.4633   -5.3263    1.7221 O.2       0 UNK        -0.5197 
      4 N          27.5267   -3.7027    0.5691 N.am      1 UNK        -0.4892 
      5 CA         26.5242   -2.6444    0.7538 C.3       1 UNK         0.0835 
      6 C6         27.1360   -1.2352    0.5182 C.3       12 UNK        -0.0855 
      7 S7         27.6904   -0.9265   -1.1999 S.3       12 UNK        -0.2931 
      8 C8         29.4867   -1.1708   -1.0609 C.3       12 UNK         0.0378 
      9 C9         30.1154   -1.3984   -2.4273 C.ar      12 UNK        -0.0802 
     10 C10        30.9444   -0.4284   -3.0001 C.ar      12 UNK        -0.0944 
     11 C11        31.5459   -0.6583   -4.2410 C.ar      12 UNK        -0.0787 
     12 C12        31.3096   -1.8620   -4.9105 C.ar      12 UNK        -0.0862 
     13 C13        30.4779   -2.8356   -4.3533 C.ar      12 UNK        -0.0733 
     14 C14        29.8850   -2.5981   -3.1096 C.ar      12 UNK        -0.0832 
     15 C15        30.2426   -4.1536   -5.0809 C.3       12 UNK         0.0240 
     16 S16        29.3690   -3.9432   -6.6669 S.3       12 UNK        -0.2522 
     17 C17        27.7792   -3.2371   -6.1269 C.3       12 UNK        -0.0967 
     18 CA         27.2767   -2.0832   -7.0295 C.3       5 UNK         0.0660 
     19 N          25.8566   -1.8266   -6.7747 N.am      5 UNK        -0.4015 
     20 C          25.0458   -1.1067   -7.5625 C.2       4 UNK         0.4946 
     21 O          25.4047   -0.5900   -8.6185 O.2       4 UNK        -0.5353 
     22 CA         23.5957   -0.8972   -7.0843 C.3       4 UNK         0.0277 
     23 CB         22.6932   -2.0278   -7.6028 C.3       4 UNK        -0.1981 
     24 N          23.4648   -0.7984   -5.6284 N.am      4 UNK        -0.4209 
     25 C          24.0606    0.1318   -4.8692 C.2       3 UNK         0.4942 
     26 O          24.7199    1.0633   -5.3277 O.2       3 UNK        -0.5208 
     27 CA         23.9581   -0.0223   -3.3420 C.3       3 UNK         0.0250 
     28 CB         22.8128    0.8436   -2.7947 C.3       3 UNK        -0.1990 
     29 N          23.8108   -1.3958   -2.8402 N.am      3 UNK        -0.4232 
     30 C          24.5968   -2.4395   -3.1424 C.2       2 UNK         0.4993 
     31 O          25.4707   -2.4193   -4.0110 O.2       2 UNK        -0.5286 
     32 CA         24.4184   -3.7007   -2.2842 C.3       2 UNK         0.0209 
     33 CB         24.6610   -4.9864   -3.0957 C.3       2 UNK        -0.1931 
     34 N          25.3811   -3.6377   -1.1882 N.am      2 UNK        -0.4546 
     35 C          25.2567   -2.8569   -0.1050 C.2       1 UNK         0.5154 
     36 O          24.2097   -2.2833    0.2020 O.2       1 UNK        -0.5181 
     37 C          28.1136   -0.7938   -6.8755 C.2       5 UNK         0.5014 
     38 O          28.9822   -0.5154   -7.7086 O.2       5 UNK        -0.5248 
     39 N          27.7937   -0.0027   -5.8406 N.am      6 UNK        -0.4434 
     40 CA         28.3738    1.3172   -5.6009 C.3       6 UNK         0.0363 
     41 CB         28.0266    1.7907   -4.1810 C.3       6 UNK        -0.1936 
     42 C          27.9238    2.3418   -6.6550 C.2       6 UNK         0.5081 
     43 O          28.7636    3.0770   -7.1717 O.2       6 UNK        -0.5248 
     44 N          26.6244    2.3489   -6.9900 N.am      7 UNK        -0.4718 
     45 CA         26.0241    3.2151   -8.0124 C.3       7 UNK         0.0273 
     46 CB         24.4951    3.0721   -7.9813 C.3       7 UNK        -0.1935 
     47 C          26.5611    2.9532   -9.4302 C.2       7 UNK         0.5018 
     48 O          26.7368    3.9040  -10.1926 O.2       7 UNK        -0.5186 
     49 N          26.8527    1.6826   -9.7443 N.am      8 UNK        -0.4240 
     50 CA         27.5314    1.2560  -10.9721 C.3       8 UNK         0.0235 
     51 CB         27.3638   -0.2638  -11.1390 C.3       8 UNK        -0.2000 
     52 C          29.0250    1.6337  -11.0208 C.2       8 UNK         0.4941 
     53 O          29.6287    1.5094  -12.0872 O.2       8 UNK        -0.5273 
     54 N          29.5929    2.0703   -9.8847 N.am      9 UNK        -0.4262 
     55 CA         30.9904    2.4566   -9.6741 C.3       9 UNK         0.0264 
     56 CB         31.3401    3.7283  -10.4760 C.3       9 UNK        -0.1955 
     57 C          31.9696    1.2961   -9.9207 C.2       9 UNK         0.5031 
     58 O          33.0397    1.5056  -10.4965 O.2       9 UNK        -0.5390 
     59 N          31.6066    0.0910   -9.4526 N.am      10 UNK        -0.4204 
     60 CA         32.4014   -1.1361   -9.6034 C.3       10 UNK         0.0237 
     61 CB         31.5725   -2.3327   -9.1170 C.3       10 UNK        -0.1985 
     62 C          33.7785   -1.0991   -8.9077 C.2       10 UNK         0.4970 
     63 O          34.6554   -1.8852   -9.2680 O.2       10 UNK        -0.4914 
     64 N          33.9501   -0.1769   -7.9529 N.am      11 UNK        -0.4285 
     65 CA         35.2307    0.1704   -7.3206 C.3       11 UNK         0.1007 
     66 C          36.1977    0.9747   -8.2406 C.2       11 UNK         0.5703 
     67 N          35.7697    1.4915   -9.3877 N.am      11 UNK        -0.7361 
     68 O          37.3708    1.1250   -7.9072 O.2       11 UNK        -0.4986 
     69 C69        35.0101    0.9053   -5.9708 C.3       12 UNK        -0.0947 
     70 S70        34.2007   -0.1575   -4.7324 S.3       12 UNK        -0.2240 
     71 C71        32.4666    0.3766   -4.8636 C.3       12 UNK         0.0194 
     72 H72        28.1697   -6.7680    0.1691 H         1 UNK         0.0906 
     73 H73        29.3386   -5.4463    0.1383 H         1 UNK         0.0906 
     74 H74        28.9992   -6.2875    1.6515 H         1 UNK         0.0906 
     75 H75        28.3356   -3.4436    0.0247 H         1 UNK         0.3140 
     76 H76        26.1933   -2.6845    1.7943 H         1 UNK         0.1085 
     77 H77        26.4035   -0.4669    0.7737 H         1 UNK         0.0836 
     78 H78        27.9693   -1.0730    1.2038 H         1 UNK         0.0836 
     79 H79        29.9270   -0.3031   -0.5671 H         1 UNK         0.0731 
     80 H80        29.7023   -2.0292   -0.4243 H         1 UNK         0.0731 
     81 H81        31.1302    0.4994   -2.4765 H         1 UNK         0.1312 
     82 H82        31.7853   -2.0455   -5.8628 H         1 UNK         0.1406 
     83 H83        29.2423   -3.3472   -2.6682 H         1 UNK         0.1631 
     84 H84        29.6777   -4.8483   -4.4574 H         1 UNK         0.0717 
     85 H85        31.2056   -4.6289   -5.2723 H         1 UNK         0.0717 
     86 H86        27.0560   -4.0544   -6.1341 H         1 UNK         0.0934 
     87 H87        27.8381   -2.9119   -5.0875 H         1 UNK         0.0934 
     88 H88        27.3629   -2.4029   -8.0704 H         1 UNK         0.0739 
     89 H89        25.5069   -2.1525   -5.8761 H         1 UNK         0.3093 
     90 H90        23.2404    0.0425   -7.5101 H         1 UNK         0.0818 
     91 H91        21.6473   -1.8480   -7.3532 H         1 UNK         0.0819 
     92 H92        22.7553   -2.1079   -8.6892 H         1 UNK         0.0819 
     93 H93        22.9775   -2.9958   -7.1880 H         1 UNK         0.0819 
     94 H94        22.9456   -1.5288   -5.1637 H         1 UNK         0.3041 
     95 H95        24.8951    0.3573   -2.9288 H         1 UNK         0.0784 
     96 H96        22.9096    1.8778   -3.1291 H         1 UNK         0.0793 
     97 H97        21.8392    0.4824   -3.1284 H         1 UNK         0.0793 
     98 H98        22.8116    0.8583   -1.7045 H         1 UNK         0.0793 
     99 H99        23.1557   -1.5131   -2.0793 H         1 UNK         0.3024 
    100 H100       23.4021   -3.7291   -1.8845 H         1 UNK         0.1171 
    101 H101       23.9714   -5.0500   -3.9384 H         1 UNK         0.0786 
    102 H102       24.5073   -5.8748   -2.4830 H         1 UNK         0.0786 
    103 H103       25.6735   -5.0310   -3.4998 H         1 UNK         0.0786 
    104 H104       26.2893   -4.0400   -1.3652 H         1 UNK         0.2977 
    105 H105       27.0544   -0.2960   -5.2180 H         1 UNK         0.3127 
    106 H106       29.4598    1.2227   -5.6687 H         1 UNK         0.0770 
    107 H107       26.9511    1.8960   -4.0363 H         1 UNK         0.0814 
    108 H108       28.4803    2.7604   -3.9734 H         1 UNK         0.0814 
    109 H109       28.3979    1.0930   -3.4307 H         1 UNK         0.0814 
    110 H110       25.9849    1.7499   -6.4699 H         1 UNK         0.2983 
    111 H111       26.2751    4.2461   -7.7539 H         1 UNK         0.0947 
    112 H112       24.0248    3.7573   -8.6879 H         1 UNK         0.0806 
    113 H113       24.0935    3.2979   -6.9933 H         1 UNK         0.0806 
    114 H114       24.1823    2.0633   -8.2490 H         1 UNK         0.0806 
    115 H115       26.5882    0.9466   -9.0954 H         1 UNK         0.3000 
    116 H116       27.0465    1.7490  -11.8173 H         1 UNK         0.0850 
    117 H117       27.8465   -0.6166  -12.0514 H         1 UNK         0.0810 
    118 H118       26.3117   -0.5414  -11.2040 H         1 UNK         0.0810 
    119 H119       27.8039   -0.8103  -10.3037 H         1 UNK         0.0810 
    120 H120       29.0061    2.1483   -9.0615 H         1 UNK         0.3040 
    121 H121       31.0797    2.7045   -8.6156 H         1 UNK         0.0766 
    122 H122       30.6367    4.5341  -10.2661 H         1 UNK         0.0812 
    123 H123       31.3316    3.5459  -11.5510 H         1 UNK         0.0812 
    124 H124       32.3353    4.0919  -10.2170 H         1 UNK         0.0812 
    125 H125       30.7118   -0.0027   -8.9812 H         1 UNK         0.3205 
    126 H126       32.5926   -1.2698  -10.6701 H         1 UNK         0.0754 
    127 H127       32.1282   -3.2667   -9.2108 H         1 UNK         0.0769 
    128 H128       30.6541   -2.4415   -9.6946 H         1 UNK         0.0769 
    129 H129       31.2927   -2.2198   -8.0713 H         1 UNK         0.0769 
    130 H130       33.1745    0.4282   -7.7382 H         1 UNK         0.2981 
    131 H131       35.7491   -0.7657   -7.1039 H         1 UNK         0.0541 
    132 H132       34.8067    1.3888   -9.6934 H         1 UNK         0.3459 
    133 H133       36.4197    2.0020   -9.9635 H         1 UNK         0.3459 
    134 H134       34.4318    1.8202   -6.1124 H         1 UNK         0.0612 
    135 H135       35.9650    1.2143   -5.5414 H         1 UNK         0.0612 
    136 H136       32.1895    0.5140   -5.9089 H         1 UNK         0.0624 
    137 H137       32.3499    1.3477   -4.3800 H         1 UNK         0.0624 
@<TRIPOS>BOND
     1    1    2 1    
     2    1   72 1    
     3    1   73 1    
     4    1   74 1    
     5    2    3 2    
     6    2    4 am   BACKBONE|DICT|INTERRES
     7    4    5 1    
     8    4   75 1    
     9    5    6 1    
    10    5   35 1    
    11    5   76 1    
    12    6    7 1    
    13    6   77 1    
    14    6   78 1    
    15    7    8 1    
    16    8    9 1    
    17    8   79 1    
    18    8   80 1    
    19    9   10 ar   
    20    9   14 ar   
    21   10   11 ar   
    22   10   81 1    
    23   11   12 ar   
    24   11   71 1    
    25   12   13 ar   
    26   12   82 1    
    27   13   14 ar   
    28   13   15 1    
    29   14   83 1    
    30   15   16 1    
    31   15   84 1    
    32   15   85 1    
    33   16   17 1    
    34   17   18 1    
    35   17   86 1    
    36   17   87 1    
    37   18   19 1    
    38   18   37 1    
    39   18   88 1    
    40   19   20 am   BACKBONE|DICT|INTERRES
    41   19   89 1    
    42   20   21 2    
    43   20   22 1    
    44   22   23 1    
    45   22   24 1    
    46   22   90 1    
    47   23   91 1    
    48   23   92 1    
    49   23   93 1    
    50   24   25 am   BACKBONE|DICT|INTERRES
    51   24   94 1    
    52   25   26 2    
    53   25   27 1    
    54   27   28 1    
    55   27   29 1    
    56   27   95 1    
    57   28   96 1    
    58   28   97 1    
    59   28   98 1    
    60   29   30 am   BACKBONE|DICT|INTERRES
    61   29   99 1    
    62   30   31 2    
    63   30   32 1    
    64   32   33 1    
    65   32   34 1    
    66   32  100 1    
    67   33  101 1    
    68   33  102 1    
    69   33  103 1    
    70   34   35 am   BACKBONE|DICT|INTERRES
    71   34  104 1    
    72   35   36 2    
    73   37   38 2    
    74   37   39 am   BACKBONE|DICT|INTERRES
    75   39   40 1    
    76   39  105 1    
    77   40   41 1    
    78   40   42 1    
    79   40  106 1    
    80   41  107 1    
    81   41  108 1    
    82   41  109 1    
    83   42   43 2    
    84   42   44 am   BACKBONE|DICT|INTERRES
    85   44   45 1    
    86   44  110 1    
    87   45   46 1    
    88   45   47 1    
    89   45  111 1    
    90   46  112 1    
    91   46  113 1    
    92   46  114 1    
    93   47   48 2    
    94   47   49 am   BACKBONE|DICT|INTERRES
    95   49   50 1    
    96   49  115 1    
    97   50   51 1    
    98   50   52 1    
    99   50  116 1    
   100   51  117 1    
   101   51  118 1    
   102   51  119 1    
   103   52   53 2    
   104   52   54 am   BACKBONE|DICT|INTERRES
   105   54   55 1    
   106   54  120 1    
   107   55   56 1    
   108   55   57 1    
   109   55  121 1    
   110   56  122 1    
   111   56  123 1    
   112   56  124 1    
   113   57   58 2    
   114   57   59 am   BACKBONE|DICT|INTERRES
   115   59   60 1    
   116   59  125 1    
   117   60   61 1    
   118   60   62 1    
   119   60  126 1    
   120   61  127 1    
   121   61  128 1    
   122   61  129 1    
   123   62   63 2    
   124   62   64 am   BACKBONE|DICT|INTERRES
   125   64   65 1    
   126   64  130 1    
   127   65   66 1    
   128   65   69 1    
   129   65  131 1    
   130   66   67 am   BACKBONE|DICT|INTERRES
   131   66   68 2    
   132   67  132 1    
   133   67  133 1    
   134   69   70 1    
   135   69  134 1    
   136   69  135 1    
   137   70   71 1    
   138   71  136 1    
   139   71  137 1    
@<TRIPOS>SUBSTRUCTURE
     1 UNK         1 GROUP             0       ****    0 ROOT    
