@<TRIPOS>MOLECULE
3R137
137   139    1
SMALL
USER_CHARGES


@<TRIPOS>ATOM
      1 CA         26.8013   -6.7026    2.0445 C.3       0 UNK        -0.2020 
      2 C          27.3328   -5.7832    0.9543 C.2       0 UNK         0.4855 
      3 O          27.7944   -6.2729   -0.0758 O.2       0 UNK        -0.5197 
      4 N          27.2788   -4.4645    1.1921 N.am      1 UNK        -0.4892 
      5 CA         27.6604   -3.3755    0.2832 C.3       1 UNK         0.0835 
      6 C6         29.1287   -3.4667   -0.2310 C.3       12 UNK        -0.0855 
      7 S7         29.9753   -1.8475   -0.2877 S.3       12 UNK        -0.2931 
      8 C8         29.4987   -1.1588   -1.9066 C.3       12 UNK         0.0378 
      9 C9         30.1196   -1.9083   -3.0767 C.ar      12 UNK        -0.0802 
     10 C10        31.3874   -1.5679   -3.5557 C.ar      12 UNK        -0.0944 
     11 C11        31.9522   -2.2703   -4.6263 C.ar      12 UNK        -0.0787 
     12 C12        31.2383   -3.3213   -5.2173 C.ar      12 UNK        -0.0862 
     13 C13        29.9735   -3.6774   -4.7367 C.ar      12 UNK        -0.0733 
     14 C14        29.4189   -2.9505   -3.6831 C.ar      12 UNK        -0.0832 
     15 C15        29.2398   -4.9002   -5.2776 C.3       12 UNK         0.0240 
     16 S16        28.1966   -4.5553   -6.7296 S.3       12 UNK        -0.2522 
     17 C17        26.8217   -3.5675   -6.0331 C.3       12 UNK        -0.0967 
     18 CA         26.5258   -2.3034   -6.8745 C.3       5 UNK         0.0660 
     19 N          25.2888   -1.6324   -6.4710 N.am      5 UNK        -0.4015 
     20 C          24.6503   -0.7280   -7.2300 C.2       4 UNK         0.4946 
     21 O          25.0017   -0.4136   -8.3677 O.2       4 UNK        -0.5353 
     22 CA         23.4455   -0.0156   -6.5933 C.3       4 UNK         0.0277 
     23 CB         22.1921   -0.9037   -6.6503 C.3       4 UNK        -0.1981 
     24 N          23.7011    0.3949   -5.2105 N.am      4 UNK        -0.4209 
     25 C          24.6436    1.2762   -4.8446 C.2       3 UNK         0.4942 
     26 O          25.3543    1.8845   -5.6423 O.2       3 UNK        -0.5208 
     27 CA         24.8584    1.4995   -3.3386 C.3       3 UNK         0.0250 
     28 CB         24.0748    2.7336   -2.8643 C.3       3 UNK        -0.1990 
     29 N          24.5085    0.3477   -2.5015 N.am      3 UNK        -0.4232 
     30 C          25.0989   -0.8550   -2.5494 C.2       2 UNK         0.4993 
     31 O          25.9826   -1.1542   -3.3583 O.2       2 UNK        -0.5286 
     32 CA         24.5774   -1.8886   -1.5376 C.3       2 UNK         0.0209 
     33 CB         23.8324   -3.0447   -2.2378 C.3       2 UNK        -0.1931 
     34 N          25.6382   -2.3418   -0.6258 N.am      2 UNK        -0.4546 
     35 C          26.6179   -3.2306   -0.8489 C.2       1 UNK         0.5154 
     36 O          26.6985   -3.9346   -1.8553 O.2       1 UNK        -0.5181 
     37 C          27.7022   -1.3113   -6.8936 C.2       5 UNK         0.5014 
     38 O          28.4649   -1.3192   -7.8591 O.2       5 UNK        -0.5248 
     39 N          27.7948   -0.4413   -5.8743 N.am      6 UNK        -0.4434 
     40 CA         28.8152    0.6088   -5.7880 C.3       6 UNK         0.0363 
     41 CB         28.6521    1.4051   -4.4845 C.3       6 UNK        -0.1936 
     42 C          28.7966    1.5598   -6.9968 C.2       6 UNK         0.5081 
     43 O          29.8570    1.8683   -7.5378 O.2       6 UNK        -0.5248 
     44 N          27.5945    1.9744   -7.4187 N.am      7 UNK        -0.4718 
     45 CA         27.3647    2.7799   -8.6167 C.3       7 UNK         0.0273 
     46 CB         25.9072    3.2673   -8.6394 C.3       7 UNK        -0.1935 
     47 C          27.7104    2.0274   -9.9113 C.2       7 UNK         0.5018 
     48 O          28.4059    2.5876  -10.7586 O.2       7 UNK        -0.5186 
     49 N          27.2392    0.7772  -10.0377 N.am      8 UNK        -0.4240 
     50 CA         27.4654   -0.0798  -11.2070 C.3       8 UNK         0.0235 
     51 CB         26.6048   -1.3485  -11.0978 C.3       8 UNK        -0.2000 
     52 C          28.9434   -0.4464  -11.4221 C.2       8 UNK         0.4941 
     53 O          29.4196   -0.3944  -12.5567 O.2       8 UNK        -0.5273 
     54 N          29.6432   -0.7953  -10.3352 N.am      9 UNK        -0.4262 
     55 CA         31.0686   -1.1324  -10.3344 C.3       9 UNK         0.0264 
     56 CB         31.3615   -2.0308   -9.1218 C.3       9 UNK        -0.1955 
     57 C          31.9922    0.1015  -10.3412 C.2       9 UNK         0.5031 
     58 O          33.1949   -0.0638  -10.5514 O.2       9 UNK        -0.5390 
     59 N          31.4279    1.2987  -10.1153 N.am      10 UNK        -0.4204 
     60 CA         32.0967    2.6010   -9.9987 C.3       10 UNK         0.0237 
     61 CB         32.7374    3.0211  -11.3390 C.3       10 UNK        -0.1985 
     62 C          33.0745    2.6558   -8.8076 C.2       10 UNK         0.4970 
     63 O          34.1902    3.1633   -8.9396 O.2       10 UNK        -0.4914 
     64 N          32.6246    2.1286   -7.6642 N.am      11 UNK        -0.4285 
     65 CA         33.3594    2.0938   -6.3913 C.3       11 UNK         0.1007 
     66 C          33.1960    3.3884   -5.5451 C.2       11 UNK         0.5703 
     67 N          32.2891    4.2979   -5.8844 N.am      11 UNK        -0.7361 
     68 O          33.9159    3.5769   -4.5674 O.2       11 UNK        -0.4986 
     69 C69        32.9942    0.8367   -5.5585 C.3       12 UNK        -0.0947 
     70 S70        33.3575   -0.7115   -6.4503 S.3       12 UNK        -0.2240 
     71 C71        33.3579   -1.9325   -5.1038 C.3       12 UNK         0.0194 
     72 H72        26.4362   -6.1473    2.9083 H         1 UNK         0.0906 
     73 H73        25.9800   -7.3058    1.6583 H         1 UNK         0.0906 
     74 H74        27.5880   -7.3762    2.3835 H         1 UNK         0.0906 
     75 H75        26.8785   -4.1563    2.0682 H         1 UNK         0.3140 
     76 H76        27.5925   -2.4781    0.9008 H         1 UNK         0.1085 
     77 H77        29.2101   -3.9896   -1.1837 H         1 UNK         0.0836 
     78 H78        29.7167   -4.0720    0.4606 H         1 UNK         0.0836 
     79 H79        29.8188   -0.1164   -1.9350 H         1 UNK         0.0731 
     80 H80        28.4119   -1.1439   -1.9956 H         1 UNK         0.0731 
     81 H81        31.9402   -0.7659   -3.0862 H         1 UNK         0.1312 
     82 H82        31.6802   -3.8817   -6.0298 H         1 UNK         0.1406 
     83 H83        28.4458   -3.2185   -3.3083 H         1 UNK         0.1631 
     84 H84        28.6239   -5.3478   -4.4955 H         1 UNK         0.0717 
     85 H85        29.9693   -5.6631   -5.5534 H         1 UNK         0.0717 
     86 H86        25.9401   -4.2100   -6.0146 H         1 UNK         0.0934 
     87 H87        27.0116   -3.3038   -4.9937 H         1 UNK         0.0934 
     88 H88        26.3776   -2.6364   -7.9043 H         1 UNK         0.0739 
     89 H89        24.9765   -1.7864   -5.5227 H         1 UNK         0.3093 
     90 H90        23.2515    0.8870   -7.1772 H         1 UNK         0.0818 
     91 H91        21.3130   -0.3724   -6.2852 H         1 UNK         0.0819 
     92 H92        21.9794   -1.2102   -7.6756 H         1 UNK         0.0819 
     93 H93        22.3072   -1.8111   -6.0563 H         1 UNK         0.0819 
     94 H94        23.1489   -0.0438   -4.4886 H         1 UNK         0.3041 
     95 H95        25.9212    1.6960   -3.1884 H         1 UNK         0.0784 
     96 H96        24.3379    3.6128   -3.4546 H         1 UNK         0.0793 
     97 H97        22.9975    2.5898   -2.9570 H         1 UNK         0.0793 
     98 H98        24.2954    2.9690   -1.8229 H         1 UNK         0.0793 
     99 H99        23.7844    0.5056   -1.8149 H         1 UNK         0.3024 
    100 H100       23.8471   -1.3948   -0.8938 H         1 UNK         0.1171 
    101 H101       23.5192   -3.8069   -1.5244 H         1 UNK         0.0786 
    102 H102       22.9346   -2.6792   -2.7374 H         1 UNK         0.0786 
    103 H103       24.4444   -3.5282   -2.9999 H         1 UNK         0.0786 
    104 H104       25.6669   -1.8410    0.2519 H         1 UNK         0.2977 
    105 H105       27.1375   -0.5160   -5.1064 H         1 UNK         0.3127 
    106 H106       29.7807    0.0999   -5.7683 H         1 UNK         0.0770 
    107 H107       27.8288    2.1169   -4.5434 H         1 UNK         0.0814 
    108 H108       29.5554    1.9768   -4.2686 H         1 UNK         0.0814 
    109 H109       28.4615    0.7541   -3.6346 H         1 UNK         0.0814 
    110 H110       26.7741    1.7288   -6.8684 H         1 UNK         0.2983 
    111 H111       28.0156    3.6551   -8.5594 H         1 UNK         0.0947 
    112 H112       25.7114    3.8772   -9.5223 H         1 UNK         0.0806 
    113 H113       25.6821    3.8789   -7.7654 H         1 UNK         0.0806 
    114 H114       25.2023    2.4349   -8.6517 H         1 UNK         0.0806 
    115 H115       26.6550    0.3958   -9.2994 H         1 UNK         0.3000 
    116 H116       27.1355    0.4761  -12.0873 H         1 UNK         0.0850 
    117 H117       26.7418   -1.9908  -11.9687 H         1 UNK         0.0810 
    118 H118       25.5440   -1.1042  -11.0388 H         1 UNK         0.0810 
    119 H119       26.8624   -1.9347  -10.2152 H         1 UNK         0.0810 
    120 H120       29.1627   -0.8637   -9.4361 H         1 UNK         0.3040 
    121 H121       31.2921   -1.7051  -11.2369 H         1 UNK         0.0766 
    122 H122       31.1291   -1.5238   -8.1847 H         1 UNK         0.0812 
    123 H123       32.4130   -2.3185   -9.0869 H         1 UNK         0.0812 
    124 H124       30.7731   -2.9479   -9.1546 H         1 UNK         0.0812 
    125 H125       30.4333    1.3110   -9.9290 H         1 UNK         0.3205 
    126 H126       31.3081    3.3211   -9.7744 H         1 UNK         0.0754 
    127 H127       33.1182    4.0417  -11.2861 H         1 UNK         0.0769 
    128 H128       32.0111    2.9884  -12.1512 H         1 UNK         0.0769 
    129 H129       33.5740    2.3765  -11.6102 H         1 UNK         0.0769 
    130 H130       31.6585    1.8085   -7.6303 H         1 UNK         0.2981 
    131 H131       34.4246    2.0272   -6.6205 H         1 UNK         0.0541 
    132 H132       31.6866    4.1446   -6.6770 H         1 UNK         0.3459 
    133 H133       32.1983    5.1357   -5.3320 H         1 UNK         0.3459 
    134 H134       31.9379    0.8483   -5.2892 H         1 UNK         0.0612 
    135 H135       33.5534    0.8265   -4.6212 H         1 UNK         0.0612 
    136 H136       33.8498   -2.8385   -5.4605 H         1 UNK         0.0624 
    137 H137       33.9665   -1.5665   -4.2756 H         1 UNK         0.0624 
@<TRIPOS>BOND
     1    1    2 1    
     2    1   72 1    
     3    1   73 1    
     4    1   74 1    
     5    2    3 2    
     6    2    4 am   BACKBONE|DICT|INTERRES
     7    4    5 1    
     8    4   75 1    
     9    5    6 1    
    10    5   35 1    
    11    5   76 1    
    12    6    7 1    
    13    6   77 1    
    14    6   78 1    
    15    7    8 1    
    16    8    9 1    
    17    8   79 1    
    18    8   80 1    
    19    9   10 ar   
    20    9   14 ar   
    21   10   11 ar   
    22   10   81 1    
    23   11   12 ar   
    24   11   71 1    
    25   12   13 ar   
    26   12   82 1    
    27   13   14 ar   
    28   13   15 1    
    29   14   83 1    
    30   15   16 1    
    31   15   84 1    
    32   15   85 1    
    33   16   17 1    
    34   17   18 1    
    35   17   86 1    
    36   17   87 1    
    37   18   19 1    
    38   18   37 1    
    39   18   88 1    
    40   19   20 am   BACKBONE|DICT|INTERRES
    41   19   89 1    
    42   20   21 2    
    43   20   22 1    
    44   22   23 1    
    45   22   24 1    
    46   22   90 1    
    47   23   91 1    
    48   23   92 1    
    49   23   93 1    
    50   24   25 am   BACKBONE|DICT|INTERRES
    51   24   94 1    
    52   25   26 2    
    53   25   27 1    
    54   27   28 1    
    55   27   29 1    
    56   27   95 1    
    57   28   96 1    
    58   28   97 1    
    59   28   98 1    
    60   29   30 am   BACKBONE|DICT|INTERRES
    61   29   99 1    
    62   30   31 2    
    63   30   32 1    
    64   32   33 1    
    65   32   34 1    
    66   32  100 1    
    67   33  101 1    
    68   33  102 1    
    69   33  103 1    
    70   34   35 am   BACKBONE|DICT|INTERRES
    71   34  104 1    
    72   35   36 2    
    73   37   38 2    
    74   37   39 am   BACKBONE|DICT|INTERRES
    75   39   40 1    
    76   39  105 1    
    77   40   41 1    
    78   40   42 1    
    79   40  106 1    
    80   41  107 1    
    81   41  108 1    
    82   41  109 1    
    83   42   43 2    
    84   42   44 am   BACKBONE|DICT|INTERRES
    85   44   45 1    
    86   44  110 1    
    87   45   46 1    
    88   45   47 1    
    89   45  111 1    
    90   46  112 1    
    91   46  113 1    
    92   46  114 1    
    93   47   48 2    
    94   47   49 am   BACKBONE|DICT|INTERRES
    95   49   50 1    
    96   49  115 1    
    97   50   51 1    
    98   50   52 1    
    99   50  116 1    
   100   51  117 1    
   101   51  118 1    
   102   51  119 1    
   103   52   53 2    
   104   52   54 am   BACKBONE|DICT|INTERRES
   105   54   55 1    
   106   54  120 1    
   107   55   56 1    
   108   55   57 1    
   109   55  121 1    
   110   56  122 1    
   111   56  123 1    
   112   56  124 1    
   113   57   58 2    
   114   57   59 am   BACKBONE|DICT|INTERRES
   115   59   60 1    
   116   59  125 1    
   117   60   61 1    
   118   60   62 1    
   119   60  126 1    
   120   61  127 1    
   121   61  128 1    
   122   61  129 1    
   123   62   63 2    
   124   62   64 am   BACKBONE|DICT|INTERRES
   125   64   65 1    
   126   64  130 1    
   127   65   66 1    
   128   65   69 1    
   129   65  131 1    
   130   66   67 am   BACKBONE|DICT|INTERRES
   131   66   68 2    
   132   67  132 1    
   133   67  133 1    
   134   69   70 1    
   135   69  134 1    
   136   69  135 1    
   137   70   71 1    
   138   71  136 1    
   139   71  137 1    
@<TRIPOS>SUBSTRUCTURE
     1 UNK         1 GROUP             0       ****    0 ROOT    
