@<TRIPOS>MOLECULE
3R137
137   139    1
SMALL
USER_CHARGES


@<TRIPOS>ATOM
      1 CA         27.6438   -5.9397    0.7717 C.3       0 UNK        -0.2020 
      2 C          27.5582   -4.6496   -0.0290 C.2       0 UNK         0.4855 
      3 O          27.5175   -4.6998   -1.2581 O.2       0 UNK        -0.5197 
      4 N          27.5292   -3.5000    0.6606 N.am      1 UNK        -0.4892 
      5 CA         27.4588   -2.1225    0.1405 C.3       1 UNK         0.0835 
      6 C6         28.6292   -1.7310   -0.7998 C.3       12 UNK        -0.0855 
      7 S7         30.2557   -1.8246    0.0314 S.3       12 UNK        -0.2931 
      8 C8         31.0226   -3.2977   -0.7264 C.3       12 UNK         0.0378 
      9 C9         31.2263   -3.1272   -2.2245 C.ar      12 UNK        -0.0802 
     10 C10        32.1721   -2.2173   -2.7062 C.ar      12 UNK        -0.0944 
     11 C11        32.3125   -2.0035   -4.0799 C.ar      12 UNK        -0.0787 
     12 C12        31.5132   -2.7207   -4.9741 C.ar      12 UNK        -0.0862 
     13 C13        30.5660   -3.6362   -4.5043 C.ar      12 UNK        -0.0733 
     14 C14        30.4410   -3.8494   -3.1286 C.ar      12 UNK        -0.0832 
     15 C15        29.6250   -4.3312   -5.4821 C.3       12 UNK         0.0240 
     16 S16        27.8673   -3.9219   -5.1835 S.3       12 UNK        -0.2522 
     17 C17        27.8899   -2.1000   -5.0744 C.3       12 UNK        -0.0967 
     18 CA         27.2623   -1.4094   -6.3056 C.3       5 UNK         0.0660 
     19 N          25.8216   -1.6493   -6.4215 N.am      5 UNK        -0.4015 
     20 C          25.0720   -1.3003   -7.4777 C.2       4 UNK         0.4946 
     21 O          25.5229   -0.7838   -8.4994 O.2       4 UNK        -0.5353 
     22 CA         23.5548   -1.5177   -7.3546 C.3       4 UNK         0.0277 
     23 CB         23.1906   -2.9836   -7.6395 C.3       4 UNK        -0.1981 
     24 N          23.0347   -1.1241   -6.0430 N.am      4 UNK        -0.4209 
     25 C          23.0565    0.1274   -5.5597 C.2       3 UNK         0.4942 
     26 O          23.4527    1.1009   -6.1979 O.2       3 UNK        -0.5208 
     27 CA         22.6118    0.3181   -4.0991 C.3       3 UNK         0.0250 
     28 CB         21.0972    0.5671   -4.0238 C.3       3 UNK        -0.1990 
     29 N          22.9714   -0.8093   -3.2318 N.am      3 UNK        -0.4232 
     30 C          24.2261   -1.2188   -2.9968 C.2       2 UNK         0.4993 
     31 O          25.2239   -0.6797   -3.4835 O.2       2 UNK        -0.5286 
     32 CA         24.3681   -2.4958   -2.1520 C.3       2 UNK         0.0209 
     33 CB         24.2015   -3.7385   -3.0431 C.3       2 UNK        -0.1931 
     34 N          25.6537   -2.5943   -1.4609 N.am      2 UNK        -0.4546 
     35 C          26.0884   -1.7867   -0.4870 C.2       1 UNK         0.5154 
     36 O          25.4384   -0.8363   -0.0476 O.2       1 UNK        -0.5181 
     37 C          27.5748    0.0961   -6.2734 C.2       5 UNK         0.5014 
     38 O          28.4790    0.5356   -6.9849 O.2       5 UNK        -0.5248 
     39 N          26.8146    0.8536   -5.4684 N.am      6 UNK        -0.4434 
     40 CA         26.9280    2.3094   -5.3507 C.3       6 UNK         0.0363 
     41 CB         26.0049    2.8105   -4.2290 C.3       6 UNK        -0.1936 
     42 C          26.6380    3.0453   -6.6712 C.2       6 UNK         0.5081 
     43 O          27.3472    3.9971   -6.9976 O.2       6 UNK        -0.5248 
     44 N          25.6229    2.5811   -7.4135 N.am      7 UNK        -0.4718 
     45 CA         25.2700    3.0812   -8.7430 C.3       7 UNK         0.0273 
     46 CB         23.8895    2.5404   -9.1489 C.3       7 UNK        -0.1935 
     47 C          26.3234    2.7360   -9.8087 C.2       7 UNK         0.5018 
     48 O          26.6510    3.5964  -10.6271 O.2       7 UNK        -0.5186 
     49 N          26.8284    1.4935   -9.7874 N.am      8 UNK        -0.4240 
     50 CA         27.8511    1.0040  -10.7151 C.3       8 UNK         0.0235 
     51 CB         27.9498   -0.5277  -10.6197 C.3       8 UNK        -0.2000 
     52 C          29.2323    1.6392  -10.4904 C.2       8 UNK         0.4941 
     53 O          29.9191    1.9299  -11.4706 O.2       8 UNK        -0.5273 
     54 N          29.6168    1.8140   -9.2152 N.am      9 UNK        -0.4262 
     55 CA         30.9246    2.2844   -8.7377 C.3       9 UNK         0.0264 
     56 CB         31.1429    3.7689   -9.0977 C.3       9 UNK        -0.1955 
     57 C          32.0753    1.3696   -9.2049 C.2       9 UNK         0.5031 
     58 O          33.1257    1.8548   -9.6312 O.2       9 UNK        -0.5390 
     59 N          31.8398    0.0507   -9.1263 N.am      10 UNK        -0.4204 
     60 CA         32.6767   -1.0154   -9.6921 C.3       10 UNK         0.0237 
     61 CB         31.9820   -2.3686   -9.4653 C.3       10 UNK        -0.1985 
     62 C          34.1310   -1.0640   -9.1867 C.2       10 UNK         0.4970 
     63 O          34.9910   -1.5856   -9.8978 O.2       10 UNK        -0.4914 
     64 N          34.3827   -0.5216   -7.9898 N.am      11 UNK        -0.4285 
     65 CA         35.7260   -0.3683   -7.4095 C.3       11 UNK         0.1007 
     66 C          36.5524    0.8008   -8.0238 C.2       11 UNK         0.5703 
     67 N          35.9773    1.6793   -8.8386 N.am      11 UNK        -0.7361 
     68 O          37.7482    0.9068   -7.7614 O.2       11 UNK        -0.4986 
     69 C69        35.6807   -0.2665   -5.8617 C.3       12 UNK        -0.0947 
     70 S70        34.8694   -1.7036   -5.0833 S.3       12 UNK        -0.2240 
     71 C71        33.2854   -0.9588   -4.5993 C.3       12 UNK         0.0194 
     72 H72        28.5404   -6.4929    0.4934 H         1 UNK         0.0906 
     73 H73        26.7779   -6.5675    0.5635 H         1 UNK         0.0906 
     74 H74        27.6793   -5.7544    1.8450 H         1 UNK         0.0906 
     75 H75        27.5459   -3.5538    1.6700 H         1 UNK         0.3140 
     76 H76        27.5374   -1.4834    1.0221 H         1 UNK         0.1085 
     77 H77        28.5065   -0.7018   -1.1431 H         1 UNK         0.0836 
     78 H78        28.6229   -2.3405   -1.7030 H         1 UNK         0.0836 
     79 H79        31.9886   -3.4758   -0.2519 H         1 UNK         0.0731 
     80 H80        30.4128   -4.1759   -0.5127 H         1 UNK         0.0731 
     81 H81        32.7738   -1.6512   -2.0079 H         1 UNK         0.1312 
     82 H82        31.6079   -2.5385   -6.0351 H         1 UNK         0.1406 
     83 H83        29.6913   -4.5390   -2.7635 H         1 UNK         0.1631 
     84 H84        29.7566   -5.4109   -5.4007 H         1 UNK         0.0717 
     85 H85        29.8722   -4.0673   -6.5116 H         1 UNK         0.0717 
     86 H86        27.3722   -1.8182   -4.1577 H         1 UNK         0.0934 
     87 H87        28.9109   -1.7470   -4.9357 H         1 UNK         0.0934 
     88 H88        27.7361   -1.8157   -7.2020 H         1 UNK         0.0739 
     89 H89        25.3689   -2.0309   -5.6051 H         1 UNK         0.3093 
     90 H90        23.0699   -0.8920   -8.1071 H         1 UNK         0.0818 
     91 H91        23.5578   -3.2915   -8.6197 H         1 UNK         0.0819 
     92 H92        23.6221   -3.6622   -6.9026 H         1 UNK         0.0819 
     93 H93        22.1104   -3.1310   -7.6404 H         1 UNK         0.0819 
     94 H94        22.6724   -1.8584   -5.4531 H         1 UNK         0.3041 
     95 H95        23.1220    1.2034   -3.7144 H         1 UNK         0.0784 
     96 H96        20.8112    1.4161   -4.6466 H         1 UNK         0.0793 
     97 H97        20.5258   -0.2961   -4.3675 H         1 UNK         0.0793 
     98 H98        20.7824    0.7955   -3.0053 H         1 UNK         0.0793 
     99 H99        22.2053   -1.3100   -2.8039 H         1 UNK         0.3024 
    100 H100       23.5845   -2.4941   -1.3911 H         1 UNK         0.1171 
    101 H101       24.9790   -3.7938   -3.8063 H         1 UNK         0.0786 
    102 H102       24.2500   -4.6553   -2.4549 H         1 UNK         0.0786 
    103 H103       23.2381   -3.7369   -3.5544 H         1 UNK         0.0786 
    104 H104       26.2613   -3.3698   -1.7148 H         1 UNK         0.2977 
    105 H105       26.1242    0.3948   -4.8791 H         1 UNK         0.3127 
    106 H106       27.9588    2.5335   -5.0681 H         1 UNK         0.0770 
    107 H107       26.1302    3.8827   -4.0732 H         1 UNK         0.0814 
    108 H108       24.9548    2.6372   -4.4638 H         1 UNK         0.0814 
    109 H109       26.2231    2.3157   -3.2823 H         1 UNK         0.0814 
    110 H110       25.0344    1.8450   -7.0314 H         1 UNK         0.2983 
    111 H111       25.2041    4.1700   -8.6852 H         1 UNK         0.0947 
    112 H112       23.8786    1.4505   -9.1893 H         1 UNK         0.0806 
    113 H113       23.5988    2.9083  -10.1338 H         1 UNK         0.0806 
    114 H114       23.1192    2.8547   -8.4444 H         1 UNK         0.0806 
    115 H115       26.4553    0.8214   -9.1216 H         1 UNK         0.3000 
    116 H116       27.5328    1.2589  -11.7283 H         1 UNK         0.0850 
    117 H117       28.7079   -0.9159  -11.3015 H         1 UNK         0.0810 
    118 H118       27.0041   -1.0013  -10.8837 H         1 UNK         0.0810 
    119 H119       28.2154   -0.8538   -9.6134 H         1 UNK         0.0810 
    120 H120       28.9899    1.4871   -8.4807 H         1 UNK         0.3040 
    121 H121       30.8960    2.2100   -7.6495 H         1 UNK         0.0766 
    122 H122       32.0564    4.1511   -8.6407 H         1 UNK         0.0812 
    123 H123       30.3182    4.3865   -8.7413 H         1 UNK         0.0812 
    124 H124       31.2323    3.9167  -10.1743 H         1 UNK         0.0812 
    125 H125       30.9493   -0.2357   -8.7457 H         1 UNK         0.3205 
    126 H126       32.7263   -0.8376  -10.7684 H         1 UNK         0.0754 
    127 H127       32.5558   -3.1824   -9.9115 H         1 UNK         0.0769 
    128 H128       30.9910   -2.3892   -9.9194 H         1 UNK         0.0769 
    129 H129       31.8717   -2.5935   -8.4045 H         1 UNK         0.0769 
    130 H130       33.6233   -0.0960   -7.4833 H         1 UNK         0.2981 
    131 H131       36.2868   -1.2741   -7.6485 H         1 UNK         0.0541 
    132 H132       36.5347    2.4231   -9.2266 H         1 UNK         0.3459 
    133 H133       34.9912    1.6179   -9.0741 H         1 UNK         0.3459 
    134 H134       35.1827    0.6539   -5.5514 H         1 UNK         0.0612 
    135 H135       36.6926   -0.2121   -5.4561 H         1 UNK         0.0612 
    136 H136       32.8446   -0.4448   -5.4544 H         1 UNK         0.0624 
    137 H137       33.4648   -0.1956   -3.8404 H         1 UNK         0.0624 
@<TRIPOS>BOND
     1    1    2 1    
     2    1   72 1    
     3    1   73 1    
     4    1   74 1    
     5    2    3 2    
     6    2    4 am   BACKBONE|DICT|INTERRES
     7    4    5 1    
     8    4   75 1    
     9    5    6 1    
    10    5   35 1    
    11    5   76 1    
    12    6    7 1    
    13    6   77 1    
    14    6   78 1    
    15    7    8 1    
    16    8    9 1    
    17    8   79 1    
    18    8   80 1    
    19    9   10 ar   
    20    9   14 ar   
    21   10   11 ar   
    22   10   81 1    
    23   11   12 ar   
    24   11   71 1    
    25   12   13 ar   
    26   12   82 1    
    27   13   14 ar   
    28   13   15 1    
    29   14   83 1    
    30   15   16 1    
    31   15   84 1    
    32   15   85 1    
    33   16   17 1    
    34   17   18 1    
    35   17   86 1    
    36   17   87 1    
    37   18   19 1    
    38   18   37 1    
    39   18   88 1    
    40   19   20 am   BACKBONE|DICT|INTERRES
    41   19   89 1    
    42   20   21 2    
    43   20   22 1    
    44   22   23 1    
    45   22   24 1    
    46   22   90 1    
    47   23   91 1    
    48   23   92 1    
    49   23   93 1    
    50   24   25 am   BACKBONE|DICT|INTERRES
    51   24   94 1    
    52   25   26 2    
    53   25   27 1    
    54   27   28 1    
    55   27   29 1    
    56   27   95 1    
    57   28   96 1    
    58   28   97 1    
    59   28   98 1    
    60   29   30 am   BACKBONE|DICT|INTERRES
    61   29   99 1    
    62   30   31 2    
    63   30   32 1    
    64   32   33 1    
    65   32   34 1    
    66   32  100 1    
    67   33  101 1    
    68   33  102 1    
    69   33  103 1    
    70   34   35 am   BACKBONE|DICT|INTERRES
    71   34  104 1    
    72   35   36 2    
    73   37   38 2    
    74   37   39 am   BACKBONE|DICT|INTERRES
    75   39   40 1    
    76   39  105 1    
    77   40   41 1    
    78   40   42 1    
    79   40  106 1    
    80   41  107 1    
    81   41  108 1    
    82   41  109 1    
    83   42   43 2    
    84   42   44 am   BACKBONE|DICT|INTERRES
    85   44   45 1    
    86   44  110 1    
    87   45   46 1    
    88   45   47 1    
    89   45  111 1    
    90   46  112 1    
    91   46  113 1    
    92   46  114 1    
    93   47   48 2    
    94   47   49 am   BACKBONE|DICT|INTERRES
    95   49   50 1    
    96   49  115 1    
    97   50   51 1    
    98   50   52 1    
    99   50  116 1    
   100   51  117 1    
   101   51  118 1    
   102   51  119 1    
   103   52   53 2    
   104   52   54 am   BACKBONE|DICT|INTERRES
   105   54   55 1    
   106   54  120 1    
   107   55   56 1    
   108   55   57 1    
   109   55  121 1    
   110   56  122 1    
   111   56  123 1    
   112   56  124 1    
   113   57   58 2    
   114   57   59 am   BACKBONE|DICT|INTERRES
   115   59   60 1    
   116   59  125 1    
   117   60   61 1    
   118   60   62 1    
   119   60  126 1    
   120   61  127 1    
   121   61  128 1    
   122   61  129 1    
   123   62   63 2    
   124   62   64 am   BACKBONE|DICT|INTERRES
   125   64   65 1    
   126   64  130 1    
   127   65   66 1    
   128   65   69 1    
   129   65  131 1    
   130   66   67 am   BACKBONE|DICT|INTERRES
   131   66   68 2    
   132   67  132 1    
   133   67  133 1    
   134   69   70 1    
   135   69  134 1    
   136   69  135 1    
   137   70   71 1    
   138   71  136 1    
   139   71  137 1    
@<TRIPOS>SUBSTRUCTURE
     1 UNK         1 GROUP             0       ****    0 ROOT    
